Warning: v2: no DC value, transient time 0 value used
Warning: v1: no DC value, transient time 0 value used

Circuit: **************************************************************

Reducing trtol to 1 for xspice 'A' devices
Doing analysis at TEMP = 27.000000 and TNOM = 27.000000


Initial Transient Solution
--------------------------

Node                                   Voltage
----                                   -------
vres                                 0.0304231
1                                      1.65209
vint01                               0.0276491
3                                    0.0294731
vint02                               0.0314839
2                                    0.0274721
vfb                                  0.0294184
vdd                                        3.3
4                                           -1
vin                                       1.65
vp                                          12
vm                                         -12
xu1.3                                  1.65105
xu1.4                                   2.3488
xu1.5                                 -11.9742
xu1.6                                 -11.9742
xu1.7                                  1.65209
xu1.16                             9.28449e-05
xu1.49                                       0
xu1.8                                    10.37
xu1.9                                0.0137285
xu1.10                                 -11.365
xu1.98                                       0
xu1.15                               0.0137285
xu1.17                                       0
xu1.23                               0.0137285
xu1.24                               0.0148175
xu1.26                                0.657649
xu1.22                               0.0276491
xu1.25                                0.013347
xu1.27                               -0.602351
xu1.21                               -0.242351
xu1.20                                0.297649
xu2.3                                0.0284726
xu2.4                                 0.726176
xu2.5                                 -11.9742
xu2.6                                 -11.9742
xu2.7                                0.0294737
xu2.16                             1.60113e-06
xu2.49                                       0
xu2.8                                    10.37
xu2.9                                 0.062768
xu2.10                                 -11.365
xu2.98                                       0
xu2.15                               0.0627679
xu2.17                                       0
xu2.23                               0.0627679
xu2.24                               0.0629642
xu2.26                                0.661484
xu2.22                               0.0314839
xu2.25                               0.0607148
xu2.27                               -0.598516
xu2.21                               -0.238516
xu2.20                                0.301484
xu3.5                                 -11.4579
xu3.6                                 -11.4579
xu3.4                                -0.885927
xu3.3                                0.0294231
xu3.98                                       0
xu3.97                                      -6
xu3.9                                0.0158161
xu3.8                                      5.9
xu3.10                                   -5.95
xu3.23                                0.029418
xu3.29                               0.0294184
xu3.40                                      12
xu3.41                                     -12
xu3.31                               0.0294184
xu3.25                                 1.42942
xu3.26                                -1.37058
xu3.110                              -0.460832
xu3.111                                      0
xu3.112                                      0
v.xu3.vi2#branch                   5.47012e-08
v.xu3.vt2#branch                   2.73508e-08
v.xu3.vi1#branch                  -4.61832e-13
v.xu3.vt1#branch                  -2.73508e-08
v.xu3.v6#branch                   -5.47017e-08
l.xu3.l1#branch                   -5.47017e-08
l.xu2.l3#branch                    0.000106101
l.xu2.l2#branch                   -1.60113e-09
l.xu1.l3#branch                   -4.04341e-05
l.xu1.l2#branch                   -9.28449e-08
e.xu3.eref2#branch                 -8.1631e-14
e.xu3.eref1#branch                 -8.1631e-14
e.xu2.e1#branch                    0.000106101
e.xu2.eh#branch                    1.18319e-12
e.xu1.e1#branch                   -4.04341e-05
e.xu1.eh#branch                    9.94662e-13
v.xu3.v5#branch                     -1.401e-12
v.xu3.v4#branch                     -1.401e-12
v.xu3.v3#branch                    5.96682e-12
v.xu3.v2#branch                    5.88518e-12
v.xu3.vos#branch                   2.24025e-11
v.xu2.v4#branch                   -2.39714e-13
v.xu2.v5#branch                   -3.02283e-13
v.xu2.v7#branch                    -0.00011732
v.xu2.v6#branch                   -1.12189e-05
v.xu2.v3#branch                    1.14288e-11
v.xu2.v2#branch                    1.03082e-11
v.xu1.v4#branch                    -2.8492e-13
v.xu1.v5#branch                   -2.57078e-13
v.xu1.v7#branch                    -2.1797e-05
v.xu1.v6#branch                   -6.22311e-05
v.xu1.v3#branch                    1.13797e-11
v.xu1.v2#branch                    1.03573e-11
v5#branch                          -0.00672332
v4#branch                          -0.00678912
v3#branch                         -0.000164791
v2#branch                          0.000103042
v1#branch                           5.2042e-08
a$poly$e.xu2.eos#branch_1_0        4.49521e-08
a$poly$e.xu1.eos#branch_1_0        4.49493e-08

 Reference value :  2.35234e-04doAnalyses: TRAN:  Timestep too small; time = 0.000292021, timestep = 1.25e-18: trouble with xu1:qx-instance q.xu1.q2


run simulation(s) aborted
                     **************************************************************
                     Transient Analysis  Sat Jan  3 23:48:26  2015
--------------------------------------------------------------------------------------------------------
Index   time            v(vint01)       v(vint02)       v(vres)         v(vfb)          v(vin)          
--------------------------------------------------------------------------------------------------------
0	0.000000e+00	2.764913e-02	3.148393e-02	3.042309e-02	2.941841e-02	1.650000e+00	
1	1.000000e-10	2.764913e-02	3.148393e-02	3.042309e-02	2.941841e-02	1.650001e+00	
2	2.000000e-10	2.764913e-02	3.148393e-02	3.042309e-02	2.941841e-02	1.650002e+00	
3	4.000000e-10	2.764913e-02	3.148393e-02	3.042309e-02	2.941841e-02	1.650004e+00	
4	8.000000e-10	2.764913e-02	3.148393e-02	3.042309e-02	2.941841e-02	1.650008e+00	
5	1.600000e-09	2.764914e-02	3.148393e-02	3.042309e-02	2.941841e-02	1.650017e+00	
6	3.200000e-09	2.764915e-02	3.148393e-02	3.042309e-02	2.941841e-02	1.650033e+00	
7	6.400000e-09	2.764917e-02	3.148393e-02	3.042309e-02	2.941841e-02	1.650066e+00	
8	1.000000e-08	2.764919e-02	3.148393e-02	3.042309e-02	2.941841e-02	1.650104e+00	
9	1.064000e-08	2.764919e-02	3.148394e-02	3.042309e-02	2.941841e-02	1.650110e+00	
10	1.192000e-08	2.764920e-02	3.148394e-02	3.042310e-02	2.941841e-02	1.650124e+00	
11	1.448000e-08	2.764922e-02	3.148398e-02	3.042313e-02	2.941841e-02	1.650150e+00	
12	1.960000e-08	2.764927e-02	3.148412e-02	3.042328e-02	2.941848e-02	1.650203e+00	
13	2.000000e-08	2.764928e-02	3.148414e-02	3.042330e-02	2.941848e-02	1.650207e+00	
14	2.080000e-08	2.764929e-02	3.148417e-02	3.042334e-02	2.941850e-02	1.650216e+00	
15	2.240000e-08	2.764931e-02	3.148423e-02	3.042340e-02	2.941855e-02	1.650232e+00	
16	2.560000e-08	2.764936e-02	3.148436e-02	3.042354e-02	2.941866e-02	1.650265e+00	
17	3.200000e-08	2.764951e-02	3.148462e-02	3.042381e-02	2.941892e-02	1.650332e+00	
18	4.480000e-08	2.765009e-02	3.148515e-02	3.042436e-02	2.941947e-02	1.650464e+00	
19	7.040000e-08	2.765344e-02	3.148619e-02	3.042545e-02	2.942055e-02	1.650730e+00	
20	1.018284e-07	2.766451e-02	3.148747e-02	3.042678e-02	2.942189e-02	1.651056e+00	
21	1.455842e-07	2.770167e-02	3.148926e-02	3.042864e-02	2.942375e-02	1.651509e+00	
22	1.899521e-07	2.777628e-02	3.149113e-02	3.043053e-02	2.942564e-02	1.651969e+00	
23	2.300335e-07	2.788467e-02	3.149292e-02	3.043224e-02	2.942735e-02	1.652385e+00	
24	2.688190e-07	2.803250e-02	3.149483e-02	3.043389e-02	2.942900e-02	1.652787e+00	
25	3.174682e-07	2.828233e-02	3.149770e-02	3.043596e-02	2.943107e-02	1.653291e+00	
26	3.793090e-07	2.870427e-02	3.150265e-02	3.043859e-02	2.943370e-02	1.653932e+00	
27	4.680085e-07	2.949601e-02	3.151415e-02	3.044238e-02	2.943749e-02	1.654852e+00	
28	6.182632e-07	3.119547e-02	3.155490e-02	3.044886e-02	2.944398e-02	1.656410e+00	
29	7.561357e-07	3.295761e-02	3.162784e-02	3.045496e-02	2.945008e-02	1.657839e+00	
30	8.807209e-07	3.454527e-02	3.173539e-02	3.046069e-02	2.945582e-02	1.659131e+00	
31	1.020000e-06	3.620371e-02	3.191620e-02	3.046751e-02	2.946263e-02	1.660575e+00	
32	1.021000e-06	3.621506e-02	3.191777e-02	3.046756e-02	2.946269e-02	1.660585e+00	
33	1.023000e-06	3.623775e-02	3.192089e-02	3.046764e-02	2.946279e-02	1.660606e+00	
34	1.027000e-06	3.628303e-02	3.192715e-02	3.046776e-02	2.946296e-02	1.660647e+00	
35	1.030000e-06	3.631690e-02	3.193185e-02	3.046781e-02	2.946307e-02	1.660678e+00	
36	1.030800e-06	3.632592e-02	3.193310e-02	3.046781e-02	2.946309e-02	1.660686e+00	
37	1.032400e-06	3.634395e-02	3.193562e-02	3.046783e-02	2.946313e-02	1.660703e+00	
38	1.035600e-06	3.637993e-02	3.194068e-02	3.046786e-02	2.946318e-02	1.660736e+00	
39	1.042000e-06	3.645166e-02	3.195093e-02	3.046791e-02	2.946325e-02	1.660803e+00	
40	1.054800e-06	3.659413e-02	3.197197e-02	3.046803e-02	2.946336e-02	1.660935e+00	
41	1.080400e-06	3.687531e-02	3.201618e-02	3.046828e-02	2.946362e-02	1.661201e+00	
42	1.131600e-06	3.742386e-02	3.211354e-02	3.046887e-02	2.946420e-02	1.661731e+00	
43	1.234000e-06	3.847822e-02	3.234706e-02	3.047039e-02	2.946572e-02	1.662793e+00	
44	1.438800e-06	4.051293e-02	3.299884e-02	3.047536e-02	2.947067e-02	1.664916e+00	
45	1.667223e-06	4.280700e-02	3.409927e-02	3.048511e-02	2.948039e-02	1.667284e+00	
46	1.883989e-06	4.508424e-02	3.560559e-02	3.050033e-02	2.949553e-02	1.669531e+00	
47	2.010000e-06	4.644651e-02	3.671698e-02	3.051264e-02	2.950779e-02	1.670838e+00	
48	2.011000e-06	4.645739e-02	3.672657e-02	3.051276e-02	2.950790e-02	1.670848e+00	
49	2.013000e-06	4.647915e-02	3.674569e-02	3.051299e-02	2.950812e-02	1.670869e+00	
50	2.017000e-06	4.652267e-02	3.678411e-02	3.051352e-02	2.950859e-02	1.670910e+00	
51	2.020000e-06	4.655532e-02	3.681308e-02	3.051396e-02	2.950897e-02	1.670941e+00	
52	2.020800e-06	4.656403e-02	3.682083e-02	3.051409e-02	2.950908e-02	1.670950e+00	
53	2.022400e-06	4.658144e-02	3.683634e-02	3.051433e-02	2.950930e-02	1.670966e+00	
54	2.025600e-06	4.661627e-02	3.686746e-02	3.051483e-02	2.950977e-02	1.670999e+00	
55	2.032000e-06	4.668595e-02	3.693004e-02	3.051583e-02	2.951075e-02	1.671066e+00	
56	2.044800e-06	4.682535e-02	3.705656e-02	3.051785e-02	2.951276e-02	1.671198e+00	
57	2.070400e-06	4.710426e-02	3.731504e-02	3.052199e-02	2.951689e-02	1.671464e+00	
58	2.121600e-06	4.766218e-02	3.785335e-02	3.053070e-02	2.952556e-02	1.671995e+00	
59	2.224000e-06	4.877621e-02	3.901153e-02	3.054994e-02	2.954472e-02	1.673056e+00	
60	2.428800e-06	5.099035e-02	4.160745e-02	3.059646e-02	2.959103e-02	1.675179e+00	
61	2.838400e-06	5.538924e-02	4.746525e-02	3.072556e-02	2.971958e-02	1.679425e+00	
62	3.020000e-06	5.734192e-02	5.015564e-02	3.079892e-02	2.979263e-02	1.681307e+00	
63	3.021000e-06	5.735271e-02	5.017035e-02	3.079935e-02	2.979307e-02	1.681318e+00	
64	3.023000e-06	5.737428e-02	5.019977e-02	3.080020e-02	2.979393e-02	1.681338e+00	
65	3.027000e-06	5.741744e-02	5.025855e-02	3.080184e-02	2.979563e-02	1.681380e+00	
66	3.030000e-06	5.744981e-02	5.030258e-02	3.080304e-02	2.979688e-02	1.681411e+00	
67	3.030800e-06	5.745845e-02	5.031431e-02	3.080335e-02	2.979721e-02	1.681419e+00	
68	3.032400e-06	5.747571e-02	5.033778e-02	3.080398e-02	2.979786e-02	1.681436e+00	
69	3.035600e-06	5.751025e-02	5.038470e-02	3.080524e-02	2.979914e-02	1.681469e+00	
70	3.042000e-06	5.757934e-02	5.047848e-02	3.080777e-02	2.980166e-02	1.681535e+00	
71	3.054800e-06	5.771759e-02	5.066583e-02	3.081286e-02	2.980674e-02	1.681668e+00	
72	3.080400e-06	5.799429e-02	5.103957e-02	3.082319e-02	2.981703e-02	1.681933e+00	
73	3.131600e-06	5.854860e-02	5.178301e-02	3.084445e-02	2.983820e-02	1.682464e+00	
74	3.234000e-06	5.966043e-02	5.325199e-02	3.088931e-02	2.988290e-02	1.683525e+00	
75	3.438800e-06	6.189392e-02	5.611098e-02	3.098814e-02	2.998140e-02	1.685648e+00	
76	3.848400e-06	6.638355e-02	6.152762e-02	3.122042e-02	3.021306e-02	1.689893e+00	
77	4.010000e-06	6.816067e-02	6.355562e-02	3.132428e-02	3.031669e-02	1.691568e+00	
78	4.011000e-06	6.817167e-02	6.356857e-02	3.132495e-02	3.031735e-02	1.691579e+00	
79	4.013000e-06	6.819369e-02	6.359339e-02	3.132629e-02	3.031868e-02	1.691599e+00	
80	4.017000e-06	6.823771e-02	6.364300e-02	3.132903e-02	3.032136e-02	1.691641e+00	
81	4.020000e-06	6.827073e-02	6.368025e-02	3.133114e-02	3.032340e-02	1.691672e+00	
82	4.020800e-06	6.827953e-02	6.369017e-02	3.133170e-02	3.032395e-02	1.691680e+00	
83	4.022400e-06	6.829715e-02	6.371003e-02	3.133284e-02	3.032506e-02	1.691697e+00	
84	4.025600e-06	6.833237e-02	6.374973e-02	3.133511e-02	3.032730e-02	1.691730e+00	
85	4.032000e-06	6.840282e-02	6.382909e-02	3.133965e-02	3.033182e-02	1.691796e+00	
86	4.044800e-06	6.854374e-02	6.398760e-02	3.134878e-02	3.034093e-02	1.691929e+00	
87	4.070400e-06	6.882564e-02	6.430383e-02	3.136715e-02	3.035926e-02	1.692194e+00	
88	4.121600e-06	6.938975e-02	6.493331e-02	3.140437e-02	3.039641e-02	1.692725e+00	
89	4.224000e-06	7.051931e-02	6.618123e-02	3.148074e-02	3.047264e-02	1.693786e+00	
90	4.428800e-06	7.278445e-02	6.864010e-02	3.164104e-02	3.063266e-02	1.695909e+00	
91	4.838400e-06	7.733947e-02	7.345652e-02	3.199110e-02	3.098219e-02	1.700153e+00	
92	5.020000e-06	7.936915e-02	7.556145e-02	3.215867e-02	3.114954e-02	1.702035e+00	
93	5.021000e-06	7.938035e-02	7.557310e-02	3.215961e-02	3.115048e-02	1.702045e+00	
94	5.023000e-06	7.940273e-02	7.559620e-02	3.216148e-02	3.115236e-02	1.702066e+00	
95	5.027000e-06	7.944751e-02	7.564236e-02	3.216518e-02	3.115611e-02	1.702108e+00	
96	5.030000e-06	7.948109e-02	7.567695e-02	3.216790e-02	3.115889e-02	1.702139e+00	
97	5.030800e-06	7.949004e-02	7.568617e-02	3.216863e-02	3.115963e-02	1.702147e+00	
98	5.032400e-06	7.950795e-02	7.570461e-02	3.217007e-02	3.116109e-02	1.702163e+00	
99	5.035600e-06	7.954378e-02	7.574148e-02	3.217297e-02	3.116401e-02	1.702197e+00	
100	5.042000e-06	7.961543e-02	7.581523e-02	3.217876e-02	3.116980e-02	1.702263e+00	
101	5.054800e-06	7.975876e-02	7.596268e-02	3.219037e-02	3.118140e-02	1.702396e+00	
102	5.080400e-06	8.004550e-02	7.625749e-02	3.221371e-02	3.120470e-02	1.702661e+00	
103	5.131600e-06	8.061929e-02	7.684671e-02	3.226082e-02	3.125175e-02	1.703191e+00	
104	5.234000e-06	8.176820e-02	7.802395e-02	3.235682e-02	3.134762e-02	1.704252e+00	
105	5.438800e-06	8.407132e-02	8.037583e-02	3.255586e-02	3.154641e-02	1.706374e+00	
106	5.848400e-06	8.869947e-02	8.507919e-02	3.298196e-02	3.197199e-02	1.710618e+00	
107	6.010000e-06	9.053361e-02	8.693622e-02	3.316031e-02	3.215013e-02	1.712292e+00	
108	6.011000e-06	9.054497e-02	8.694773e-02	3.316143e-02	3.215125e-02	1.712303e+00	
109	6.013000e-06	9.056770e-02	8.697074e-02	3.316369e-02	3.215350e-02	1.712323e+00	
110	6.017000e-06	9.061316e-02	8.701678e-02	3.316827e-02	3.215801e-02	1.712365e+00	
111	6.020000e-06	9.064726e-02	8.705134e-02	3.317175e-02	3.216142e-02	1.712396e+00	
112	6.020800e-06	9.065635e-02	8.706056e-02	3.317268e-02	3.216234e-02	1.712404e+00	
113	6.022400e-06	9.067454e-02	8.707901e-02	3.317455e-02	3.216418e-02	1.712421e+00	
114	6.025600e-06	9.071091e-02	8.711589e-02	3.317828e-02	3.216789e-02	1.712454e+00	
115	6.032000e-06	9.078367e-02	8.718966e-02	3.318576e-02	3.217534e-02	1.712520e+00	
116	6.044800e-06	9.092920e-02	8.733720e-02	3.320074e-02	3.219031e-02	1.712653e+00	
117	6.070400e-06	9.122034e-02	8.763233e-02	3.323080e-02	3.222034e-02	1.712918e+00	
118	6.121600e-06	9.180299e-02	8.822273e-02	3.329137e-02	3.228085e-02	1.713449e+00	
119	6.224000e-06	9.296967e-02	8.940405e-02	3.341424e-02	3.240358e-02	1.714509e+00	
120	6.428800e-06	9.530858e-02	9.176865e-02	3.366688e-02	3.265596e-02	1.716631e+00	
121	6.838400e-06	1.000084e-01	9.650675e-02	3.419968e-02	3.318824e-02	1.720874e+00	
122	7.020000e-06	1.021015e-01	9.861161e-02	3.444761e-02	3.343593e-02	1.722755e+00	
123	7.021000e-06	1.021130e-01	9.862322e-02	3.444899e-02	3.343732e-02	1.722765e+00	
124	7.023000e-06	1.021361e-01	9.864641e-02	3.445174e-02	3.344008e-02	1.722786e+00	
125	7.027000e-06	1.021823e-01	9.869275e-02	3.445720e-02	3.344560e-02	1.722827e+00	
126	7.030000e-06	1.022169e-01	9.872747e-02	3.446125e-02	3.344971e-02	1.722858e+00	
127	7.030800e-06	1.022261e-01	9.873673e-02	3.446233e-02	3.345079e-02	1.722866e+00	
128	7.032400e-06	1.022446e-01	9.875524e-02	3.446448e-02	3.345297e-02	1.722883e+00	
129	7.035600e-06	1.022816e-01	9.879227e-02	3.446879e-02	3.345729e-02	1.722916e+00	
130	7.042000e-06	1.023554e-01	9.886633e-02	3.447740e-02	3.346592e-02	1.722982e+00	
131	7.054800e-06	1.025032e-01	9.901446e-02	3.449467e-02	3.348316e-02	1.723115e+00	
132	7.080400e-06	1.027989e-01	9.931077e-02	3.452930e-02	3.351776e-02	1.723380e+00	
133	7.131600e-06	1.033906e-01	9.990363e-02	3.459899e-02	3.358738e-02	1.723910e+00	
134	7.234000e-06	1.045754e-01	1.010904e-01	3.474008e-02	3.372834e-02	1.724971e+00	
135	7.438800e-06	1.069505e-01	1.034685e-01	3.502909e-02	3.401709e-02	1.727092e+00	
136	7.848400e-06	1.117227e-01	1.082452e-01	3.563437e-02	3.462185e-02	1.731333e+00	
137	8.010000e-06	1.136135e-01	1.101372e-01	3.588317e-02	3.487043e-02	1.733007e+00	
138	8.011000e-06	1.136252e-01	1.101489e-01	3.588473e-02	3.487199e-02	1.733017e+00	
139	8.013000e-06	1.136487e-01	1.101724e-01	3.588787e-02	3.487510e-02	1.733038e+00	
140	8.017000e-06	1.136955e-01	1.102193e-01	3.589418e-02	3.488136e-02	1.733079e+00	
141	8.020000e-06	1.137307e-01	1.102545e-01	3.589897e-02	3.488608e-02	1.733110e+00	
142	8.020800e-06	1.137401e-01	1.102639e-01	3.590025e-02	3.488735e-02	1.733118e+00	
143	8.022400e-06	1.137588e-01	1.102827e-01	3.590281e-02	3.488988e-02	1.733135e+00	
144	8.025600e-06	1.137963e-01	1.103203e-01	3.590794e-02	3.489498e-02	1.733168e+00	
145	8.032000e-06	1.138713e-01	1.103956e-01	3.591821e-02	3.490523e-02	1.733234e+00	
146	8.044800e-06	1.140213e-01	1.105460e-01	3.593876e-02	3.492576e-02	1.733367e+00	
147	8.070400e-06	1.143214e-01	1.108470e-01	3.597997e-02	3.496694e-02	1.733632e+00	
148	8.121600e-06	1.149220e-01	1.114492e-01	3.606282e-02	3.504973e-02	1.734162e+00	
149	8.224000e-06	1.161245e-01	1.126548e-01	3.623022e-02	3.521699e-02	1.735222e+00	
150	8.428800e-06	1.185349e-01	1.150698e-01	3.657180e-02	3.555829e-02	1.737343e+00	
151	8.838400e-06	1.233777e-01	1.199148e-01	3.728199e-02	3.626794e-02	1.741583e+00	
152	9.020000e-06	1.255341e-01	1.220695e-01	3.760837e-02	3.659408e-02	1.743463e+00	
153	9.021000e-06	1.255460e-01	1.220814e-01	3.761018e-02	3.659590e-02	1.743473e+00	
154	9.023000e-06	1.255698e-01	1.221051e-01	3.761380e-02	3.659953e-02	1.743494e+00	
155	9.027000e-06	1.256174e-01	1.221525e-01	3.762099e-02	3.660677e-02	1.743535e+00	
156	9.030000e-06	1.256530e-01	1.221881e-01	3.762633e-02	3.661217e-02	1.743566e+00	
157	9.030800e-06	1.256625e-01	1.221976e-01	3.762775e-02	3.661360e-02	1.743574e+00	
158	9.032400e-06	1.256816e-01	1.222165e-01	3.763060e-02	3.661647e-02	1.743591e+00	
159	9.035600e-06	1.257196e-01	1.222545e-01	3.763628e-02	3.662218e-02	1.743624e+00	
160	9.042000e-06	1.257957e-01	1.223303e-01	3.764766e-02	3.663356e-02	1.743690e+00	
161	9.054800e-06	1.259480e-01	1.224820e-01	3.767045e-02	3.665633e-02	1.743823e+00	
162	9.080400e-06	1.262526e-01	1.227855e-01	3.771613e-02	3.670197e-02	1.744088e+00	
163	9.131600e-06	1.268621e-01	1.233927e-01	3.780791e-02	3.679369e-02	1.744618e+00	
164	9.234000e-06	1.280826e-01	1.246085e-01	3.799316e-02	3.697879e-02	1.745678e+00	
165	9.438800e-06	1.305289e-01	1.270456e-01	3.837038e-02	3.735574e-02	1.747797e+00	
166	9.848400e-06	1.354434e-01	1.319431e-01	3.915172e-02	3.813653e-02	1.752036e+00	
167	1.001000e-05	1.373903e-01	1.338838e-01	3.946984e-02	3.845443e-02	1.753708e+00	
168	1.001100e-05	1.374023e-01	1.338958e-01	3.947183e-02	3.845642e-02	1.753718e+00	
169	1.001300e-05	1.374264e-01	1.339199e-01	3.947582e-02	3.846039e-02	1.753739e+00	
170	1.001700e-05	1.374747e-01	1.339680e-01	3.948385e-02	3.846836e-02	1.753780e+00	
171	1.002000e-05	1.375109e-01	1.340042e-01	3.948992e-02	3.847437e-02	1.753811e+00	
172	1.002080e-05	1.375205e-01	1.340138e-01	3.949155e-02	3.847598e-02	1.753820e+00	
173	1.002240e-05	1.375398e-01	1.340331e-01	3.949480e-02	3.847920e-02	1.753836e+00	
174	1.002560e-05	1.375784e-01	1.340717e-01	3.950130e-02	3.848567e-02	1.753869e+00	
175	1.003200e-05	1.376556e-01	1.341488e-01	3.951431e-02	3.849866e-02	1.753935e+00	
176	1.004480e-05	1.378101e-01	1.343031e-01	3.954035e-02	3.852468e-02	1.754068e+00	
177	1.007040e-05	1.381191e-01	1.346119e-01	3.959253e-02	3.857683e-02	1.754333e+00	
178	1.012160e-05	1.387374e-01	1.352297e-01	3.969733e-02	3.868156e-02	1.754862e+00	
179	1.022400e-05	1.399753e-01	1.364664e-01	3.990859e-02	3.889268e-02	1.755922e+00	
180	1.042880e-05	1.424567e-01	1.389443e-01	4.033780e-02	3.932161e-02	1.758041e+00	
181	1.083840e-05	1.474410e-01	1.439167e-01	4.122296e-02	4.020621e-02	1.762278e+00	
182	1.102000e-05	1.496600e-01	1.461284e-01	4.162679e-02	4.060978e-02	1.764156e+00	
183	1.102100e-05	1.496723e-01	1.461406e-01	4.162903e-02	4.061202e-02	1.764166e+00	
184	1.102300e-05	1.496967e-01	1.461650e-01	4.163350e-02	4.061650e-02	1.764187e+00	
185	1.102700e-05	1.497457e-01	1.462137e-01	4.164239e-02	4.062545e-02	1.764228e+00	
186	1.103000e-05	1.497824e-01	1.462502e-01	4.164902e-02	4.063213e-02	1.764259e+00	
187	1.103080e-05	1.497922e-01	1.462599e-01	4.165078e-02	4.063390e-02	1.764268e+00	
188	1.103240e-05	1.498118e-01	1.462794e-01	4.165430e-02	4.063745e-02	1.764284e+00	
189	1.103560e-05	1.498509e-01	1.463183e-01	4.166135e-02	4.064452e-02	1.764317e+00	
190	1.104200e-05	1.499293e-01	1.463962e-01	4.167546e-02	4.065863e-02	1.764383e+00	
191	1.105480e-05	1.500859e-01	1.465519e-01	4.170370e-02	4.068685e-02	1.764516e+00	
192	1.108040e-05	1.503994e-01	1.468635e-01	4.176029e-02	4.074341e-02	1.764781e+00	
193	1.113160e-05	1.510265e-01	1.474869e-01	4.187388e-02	4.085693e-02	1.765310e+00	
194	1.123400e-05	1.522823e-01	1.487352e-01	4.210273e-02	4.108564e-02	1.766369e+00	
195	1.143880e-05	1.547991e-01	1.512374e-01	4.256709e-02	4.154971e-02	1.768487e+00	
196	1.184840e-05	1.598543e-01	1.562662e-01	4.352243e-02	4.250447e-02	1.772722e+00	
197	1.201000e-05	1.618567e-01	1.582589e-01	4.390910e-02	4.289091e-02	1.774393e+00	
198	1.201100e-05	1.618691e-01	1.582713e-01	4.391151e-02	4.289332e-02	1.774403e+00	
199	1.201300e-05	1.618939e-01	1.582960e-01	4.391635e-02	4.289814e-02	1.774424e+00	
200	1.201700e-05	1.619435e-01	1.583454e-01	4.392608e-02	4.290780e-02	1.774465e+00	
201	1.202000e-05	1.619807e-01	1.583825e-01	4.393342e-02	4.291508e-02	1.774496e+00	
202	1.202080e-05	1.619906e-01	1.583924e-01	4.393538e-02	4.291703e-02	1.774504e+00	
203	1.202240e-05	1.620105e-01	1.584123e-01	4.393931e-02	4.292093e-02	1.774521e+00	
204	1.202560e-05	1.620502e-01	1.584519e-01	4.394717e-02	4.292876e-02	1.774554e+00	
205	1.203200e-05	1.621296e-01	1.585311e-01	4.396289e-02	4.294446e-02	1.774620e+00	
206	1.204480e-05	1.622884e-01	1.586895e-01	4.399436e-02	4.297591e-02	1.774752e+00	
207	1.207040e-05	1.626062e-01	1.590065e-01	4.405739e-02	4.303891e-02	1.775017e+00	
208	1.212160e-05	1.632420e-01	1.596409e-01	4.418389e-02	4.316533e-02	1.775546e+00	
209	1.222400e-05	1.645151e-01	1.609108e-01	4.443853e-02	4.341982e-02	1.776605e+00	
210	1.242880e-05	1.670666e-01	1.634550e-01	4.495443e-02	4.393544e-02	1.778722e+00	
211	1.283840e-05	1.721909e-01	1.685604e-01	4.601271e-02	4.499313e-02	1.782955e+00	
212	1.302000e-05	1.744719e-01	1.708314e-01	4.649318e-02	4.547333e-02	1.784831e+00	
213	1.302100e-05	1.744845e-01	1.708439e-01	4.649584e-02	4.547600e-02	1.784841e+00	
214	1.302300e-05	1.745097e-01	1.708689e-01	4.650115e-02	4.548132e-02	1.784862e+00	
215	1.302700e-05	1.745600e-01	1.709189e-01	4.651173e-02	4.549195e-02	1.784903e+00	
216	1.303000e-05	1.745977e-01	1.709564e-01	4.651962e-02	4.549990e-02	1.784934e+00	
217	1.303080e-05	1.746078e-01	1.709664e-01	4.652172e-02	4.550201e-02	1.784943e+00	
218	1.303240e-05	1.746279e-01	1.709864e-01	4.652592e-02	4.550623e-02	1.784959e+00	
219	1.303560e-05	1.746682e-01	1.710264e-01	4.653432e-02	4.551465e-02	1.784992e+00	
220	1.304200e-05	1.747487e-01	1.711063e-01	4.655113e-02	4.553146e-02	1.785058e+00	
221	1.305480e-05	1.749097e-01	1.712662e-01	4.658477e-02	4.556508e-02	1.785191e+00	
222	1.308040e-05	1.752319e-01	1.715862e-01	4.665216e-02	4.563243e-02	1.785455e+00	
223	1.313160e-05	1.758765e-01	1.722263e-01	4.678734e-02	4.576754e-02	1.785984e+00	
224	1.323400e-05	1.771671e-01	1.735081e-01	4.705935e-02	4.603941e-02	1.787042e+00	
225	1.343880e-05	1.797537e-01	1.760774e-01	4.760997e-02	4.658973e-02	1.789158e+00	
226	1.384840e-05	1.849482e-01	1.812405e-01	4.873758e-02	4.771674e-02	1.793389e+00	
227	1.401000e-05	1.870054e-01	1.832864e-01	4.919213e-02	4.817105e-02	1.795058e+00	
228	1.401100e-05	1.870181e-01	1.832990e-01	4.919496e-02	4.817388e-02	1.795068e+00	
229	1.401300e-05	1.870436e-01	1.833244e-01	4.920064e-02	4.817954e-02	1.795089e+00	
230	1.401700e-05	1.870946e-01	1.833752e-01	4.921205e-02	4.819088e-02	1.795130e+00	
231	1.402000e-05	1.871328e-01	1.834133e-01	4.922065e-02	4.819942e-02	1.795161e+00	
232	1.402080e-05	1.871430e-01	1.834234e-01	4.922295e-02	4.820170e-02	1.795169e+00	
233	1.402240e-05	1.871634e-01	1.834437e-01	4.922755e-02	4.820628e-02	1.795186e+00	
234	1.402560e-05	1.872042e-01	1.834844e-01	4.923675e-02	4.821545e-02	1.795219e+00	
235	1.403200e-05	1.872858e-01	1.835657e-01	4.925516e-02	4.823383e-02	1.795285e+00	
236	1.404480e-05	1.874490e-01	1.837284e-01	4.929200e-02	4.827066e-02	1.795417e+00	
237	1.407040e-05	1.877754e-01	1.840538e-01	4.936578e-02	4.834440e-02	1.795681e+00	
238	1.412160e-05	1.884286e-01	1.847050e-01	4.951376e-02	4.849231e-02	1.796210e+00	
239	1.422400e-05	1.897364e-01	1.860085e-01	4.981136e-02	4.878976e-02	1.797268e+00	
240	1.442880e-05	1.923572e-01	1.886201e-01	5.041313e-02	4.939122e-02	1.799382e+00	
241	1.483840e-05	1.976201e-01	1.938603e-01	5.164289e-02	5.062037e-02	1.803611e+00	
242	1.502000e-05	1.999624e-01	1.961911e-01	5.219929e-02	5.117649e-02	1.805485e+00	
243	1.502100e-05	1.999754e-01	1.962039e-01	5.220237e-02	5.117957e-02	1.805495e+00	
244	1.502300e-05	2.000012e-01	1.962296e-01	5.220852e-02	5.118573e-02	1.805516e+00	
245	1.502700e-05	2.000528e-01	1.962809e-01	5.222077e-02	5.119804e-02	1.805557e+00	
246	1.503000e-05	2.000916e-01	1.963194e-01	5.222991e-02	5.120724e-02	1.805588e+00	
247	1.503080e-05	2.001019e-01	1.963297e-01	5.223234e-02	5.120968e-02	1.805597e+00	
248	1.503240e-05	2.001226e-01	1.963502e-01	5.223721e-02	5.121457e-02	1.805613e+00	
249	1.503560e-05	2.001639e-01	1.963912e-01	5.224695e-02	5.122433e-02	1.805646e+00	
250	1.504200e-05	2.002466e-01	1.964733e-01	5.226643e-02	5.124381e-02	1.805712e+00	
251	1.505480e-05	2.004119e-01	1.966374e-01	5.230542e-02	5.128278e-02	1.805844e+00	
252	1.508040e-05	2.007427e-01	1.969658e-01	5.238350e-02	5.136083e-02	1.806109e+00	
253	1.513160e-05	2.014046e-01	1.976228e-01	5.254007e-02	5.151732e-02	1.806637e+00	
254	1.523400e-05	2.027298e-01	1.989383e-01	5.285485e-02	5.183194e-02	1.807694e+00	
255	1.543880e-05	2.053854e-01	2.015751e-01	5.349094e-02	5.246772e-02	1.809807e+00	
256	1.584840e-05	2.107176e-01	2.068733e-01	5.478925e-02	5.376541e-02	1.814033e+00	
257	1.601000e-05	2.128290e-01	2.089724e-01	5.531105e-02	5.428697e-02	1.815700e+00	
258	1.601100e-05	2.128421e-01	2.089854e-01	5.531430e-02	5.429021e-02	1.815710e+00	
259	1.601300e-05	2.128683e-01	2.090115e-01	5.532081e-02	5.429670e-02	1.815731e+00	
260	1.601700e-05	2.129206e-01	2.090635e-01	5.533388e-02	5.430971e-02	1.815772e+00	
261	1.602000e-05	2.129598e-01	2.091026e-01	5.534373e-02	5.431950e-02	1.815803e+00	
262	1.602080e-05	2.129703e-01	2.091130e-01	5.534637e-02	5.432211e-02	1.815811e+00	
263	1.602240e-05	2.129912e-01	2.091339e-01	5.535163e-02	5.432735e-02	1.815828e+00	
264	1.602560e-05	2.130331e-01	2.091756e-01	5.536216e-02	5.433785e-02	1.815861e+00	
265	1.603200e-05	2.131168e-01	2.092590e-01	5.538323e-02	5.435890e-02	1.815927e+00	
266	1.604480e-05	2.132843e-01	2.094259e-01	5.542540e-02	5.440105e-02	1.816059e+00	
267	1.607040e-05	2.136193e-01	2.097598e-01	5.550983e-02	5.448544e-02	1.816323e+00	
268	1.612160e-05	2.142897e-01	2.104278e-01	5.567911e-02	5.465464e-02	1.816851e+00	
269	1.622400e-05	2.156318e-01	2.117651e-01	5.601928e-02	5.499466e-02	1.817907e+00	
270	1.642880e-05	2.183213e-01	2.144442e-01	5.670614e-02	5.568120e-02	1.820019e+00	
271	1.683840e-05	2.237211e-01	2.198193e-01	5.810585e-02	5.708027e-02	1.824243e+00	
272	1.702000e-05	2.261241e-01	2.222097e-01	5.873749e-02	5.771163e-02	1.826115e+00	
273	1.702100e-05	2.261373e-01	2.222229e-01	5.874099e-02	5.771513e-02	1.826125e+00	
274	1.702300e-05	2.261638e-01	2.222493e-01	5.874796e-02	5.772212e-02	1.826145e+00	
275	1.702700e-05	2.262168e-01	2.223019e-01	5.876187e-02	5.773608e-02	1.826187e+00	
276	1.703000e-05	2.262565e-01	2.223414e-01	5.877226e-02	5.774652e-02	1.826218e+00	
277	1.703080e-05	2.262671e-01	2.223519e-01	5.877502e-02	5.774930e-02	1.826226e+00	
278	1.703240e-05	2.262883e-01	2.223729e-01	5.878055e-02	5.775485e-02	1.826242e+00	
279	1.703560e-05	2.263307e-01	2.224150e-01	5.879162e-02	5.776593e-02	1.826275e+00	
280	1.704200e-05	2.264155e-01	2.224992e-01	5.881375e-02	5.778807e-02	1.826341e+00	
281	1.705480e-05	2.265852e-01	2.226675e-01	5.885804e-02	5.783233e-02	1.826473e+00	
282	1.708040e-05	2.269245e-01	2.230043e-01	5.894672e-02	5.792098e-02	1.826737e+00	
283	1.713160e-05	2.276035e-01	2.236782e-01	5.912449e-02	5.809867e-02	1.827265e+00	
284	1.723400e-05	2.289628e-01	2.250274e-01	5.948165e-02	5.845567e-02	1.828320e+00	
285	1.743880e-05	2.316866e-01	2.277316e-01	6.020245e-02	5.917615e-02	1.830431e+00	
286	1.784840e-05	2.371550e-01	2.331644e-01	6.166995e-02	6.064300e-02	1.834651e+00	
287	1.801000e-05	2.393200e-01	2.353167e-01	6.225842e-02	6.123122e-02	1.836316e+00	
288	1.801100e-05	2.393335e-01	2.353300e-01	6.226209e-02	6.123487e-02	1.836326e+00	
289	1.801300e-05	2.393603e-01	2.353567e-01	6.226942e-02	6.124219e-02	1.836347e+00	
290	1.801700e-05	2.394139e-01	2.354101e-01	6.228414e-02	6.125685e-02	1.836388e+00	
291	1.802000e-05	2.394542e-01	2.354502e-01	6.229523e-02	6.126787e-02	1.836419e+00	
292	1.802080e-05	2.394649e-01	2.354608e-01	6.229819e-02	6.127082e-02	1.836427e+00	
293	1.802240e-05	2.394864e-01	2.354822e-01	6.230412e-02	6.127672e-02	1.836444e+00	
294	1.802560e-05	2.395293e-01	2.355250e-01	6.231597e-02	6.128854e-02	1.836477e+00	
295	1.803200e-05	2.396151e-01	2.356105e-01	6.233968e-02	6.131223e-02	1.836543e+00	
296	1.804480e-05	2.397869e-01	2.357816e-01	6.238712e-02	6.135965e-02	1.836675e+00	
297	1.807040e-05	2.401304e-01	2.361239e-01	6.248211e-02	6.145460e-02	1.836938e+00	
298	1.812160e-05	2.408178e-01	2.368087e-01	6.267249e-02	6.164490e-02	1.837466e+00	
299	1.822400e-05	2.421938e-01	2.381796e-01	6.305487e-02	6.202711e-02	1.838520e+00	
300	1.842880e-05	2.449511e-01	2.409258e-01	6.382607e-02	6.279799e-02	1.840629e+00	
301	1.883840e-05	2.504863e-01	2.464351e-01	6.539424e-02	6.436549e-02	1.844847e+00	
302	1.902000e-05	2.529492e-01	2.488850e-01	6.610047e-02	6.507143e-02	1.846716e+00	
303	1.902100e-05	2.529628e-01	2.488985e-01	6.610438e-02	6.507534e-02	1.846726e+00	
304	1.902300e-05	2.529899e-01	2.489255e-01	6.611218e-02	6.508315e-02	1.846747e+00	
305	1.902700e-05	2.530443e-01	2.489795e-01	6.612772e-02	6.509875e-02	1.846788e+00	
306	1.903000e-05	2.530850e-01	2.490199e-01	6.613934e-02	6.511043e-02	1.846819e+00	
307	1.903080e-05	2.530959e-01	2.490307e-01	6.614244e-02	6.511353e-02	1.846827e+00	
308	1.903240e-05	2.531176e-01	2.490523e-01	6.614863e-02	6.511974e-02	1.846844e+00	
309	1.903560e-05	2.531610e-01	2.490954e-01	6.616100e-02	6.513214e-02	1.846877e+00	
310	1.904200e-05	2.532479e-01	2.491817e-01	6.618576e-02	6.515690e-02	1.846943e+00	
311	1.905480e-05	2.534218e-01	2.493542e-01	6.623531e-02	6.520642e-02	1.847074e+00	
312	1.908040e-05	2.537696e-01	2.496994e-01	6.633450e-02	6.530557e-02	1.847338e+00	
313	1.913160e-05	2.544654e-01	2.503900e-01	6.653328e-02	6.550427e-02	1.847865e+00	
314	1.923400e-05	2.558585e-01	2.517727e-01	6.693246e-02	6.590328e-02	1.848919e+00	
315	1.943880e-05	2.586497e-01	2.545438e-01	6.773723e-02	6.670772e-02	1.851026e+00	
316	1.984840e-05	2.642527e-01	2.601103e-01	6.937245e-02	6.834227e-02	1.855240e+00	
317	2.001000e-05	2.664708e-01	2.623153e-01	7.002701e-02	6.899657e-02	1.856903e+00	
318	2.001100e-05	2.664846e-01	2.623289e-01	7.003108e-02	6.900064e-02	1.856913e+00	
319	2.001300e-05	2.665120e-01	2.623563e-01	7.003923e-02	6.900877e-02	1.856934e+00	
320	2.001700e-05	2.665670e-01	2.624109e-01	7.005559e-02	6.902506e-02	1.856975e+00	
321	2.002000e-05	2.666082e-01	2.624520e-01	7.006790e-02	6.903731e-02	1.857006e+00	
322	2.002080e-05	2.666192e-01	2.624629e-01	7.007119e-02	6.904058e-02	1.857014e+00	
323	2.002240e-05	2.666412e-01	2.624849e-01	7.007777e-02	6.904714e-02	1.857030e+00	
324	2.002560e-05	2.666852e-01	2.625287e-01	7.009093e-02	6.906027e-02	1.857063e+00	
325	2.003200e-05	2.667731e-01	2.626163e-01	7.011726e-02	6.908657e-02	1.857129e+00	
326	2.004480e-05	2.669490e-01	2.627915e-01	7.016993e-02	6.913923e-02	1.857261e+00	
327	2.007040e-05	2.673010e-01	2.631421e-01	7.027539e-02	6.924464e-02	1.857524e+00	
328	2.012160e-05	2.680051e-01	2.638436e-01	7.048669e-02	6.945586e-02	1.858050e+00	
329	2.022400e-05	2.694147e-01	2.652479e-01	7.091090e-02	6.987990e-02	1.859104e+00	
330	2.042880e-05	2.722390e-01	2.680607e-01	7.176571e-02	7.073437e-02	1.861210e+00	
331	2.083840e-05	2.779081e-01	2.737029e-01	7.350088e-02	7.246885e-02	1.865420e+00	
332	2.102000e-05	2.804302e-01	2.762117e-01	7.428105e-02	7.324873e-02	1.867287e+00	
333	2.102100e-05	2.804442e-01	2.762255e-01	7.428537e-02	7.325304e-02	1.867297e+00	
334	2.102300e-05	2.804720e-01	2.762532e-01	7.429398e-02	7.326166e-02	1.867318e+00	
335	2.102700e-05	2.805276e-01	2.763084e-01	7.431116e-02	7.327889e-02	1.867359e+00	
336	2.103000e-05	2.805693e-01	2.763498e-01	7.432400e-02	7.329179e-02	1.867390e+00	
337	2.103080e-05	2.805804e-01	2.763609e-01	7.432741e-02	7.329522e-02	1.867398e+00	
338	2.103240e-05	2.806027e-01	2.763830e-01	7.433425e-02	7.330208e-02	1.867414e+00	
339	2.103560e-05	2.806472e-01	2.764271e-01	7.434793e-02	7.331578e-02	1.867447e+00	
340	2.104200e-05	2.807362e-01	2.765155e-01	7.437530e-02	7.334314e-02	1.867513e+00	
341	2.105480e-05	2.809142e-01	2.766922e-01	7.443005e-02	7.339788e-02	1.867644e+00	
342	2.108040e-05	2.812703e-01	2.770456e-01	7.453966e-02	7.350744e-02	1.867907e+00	
343	2.113160e-05	2.819829e-01	2.777528e-01	7.475928e-02	7.372697e-02	1.868434e+00	
344	2.123400e-05	2.834092e-01	2.791686e-01	7.520010e-02	7.416762e-02	1.869486e+00	
345	2.143880e-05	2.862671e-01	2.820060e-01	7.608811e-02	7.505529e-02	1.871590e+00	
346	2.184840e-05	2.920032e-01	2.877047e-01	7.788959e-02	7.685608e-02	1.875797e+00	
347	2.201000e-05	2.942737e-01	2.899616e-01	7.860966e-02	7.757588e-02	1.877457e+00	
348	2.201100e-05	2.942877e-01	2.899756e-01	7.861414e-02	7.758035e-02	1.877467e+00	
349	2.201300e-05	2.943159e-01	2.900036e-01	7.862310e-02	7.758929e-02	1.877487e+00	
350	2.201700e-05	2.943721e-01	2.900596e-01	7.864108e-02	7.760720e-02	1.877529e+00	
351	2.202000e-05	2.944143e-01	2.901016e-01	7.865461e-02	7.762067e-02	1.877559e+00	
352	2.202080e-05	2.944256e-01	2.901128e-01	7.865822e-02	7.762427e-02	1.877568e+00	
353	2.202240e-05	2.944481e-01	2.901352e-01	7.866545e-02	7.763147e-02	1.877584e+00	
354	2.202560e-05	2.944931e-01	2.901800e-01	7.867991e-02	7.764589e-02	1.877617e+00	
355	2.203200e-05	2.945831e-01	2.902697e-01	7.870882e-02	7.767479e-02	1.877683e+00	
356	2.204480e-05	2.947632e-01	2.904491e-01	7.876669e-02	7.773263e-02	1.877814e+00	
357	2.207040e-05	2.951234e-01	2.908079e-01	7.888251e-02	7.784841e-02	1.878077e+00	
358	2.212160e-05	2.958441e-01	2.915259e-01	7.911456e-02	7.808037e-02	1.878603e+00	
359	2.222400e-05	2.972869e-01	2.929630e-01	7.958023e-02	7.854587e-02	1.879654e+00	
360	2.242880e-05	3.001774e-01	2.958415e-01	8.051792e-02	7.948321e-02	1.881756e+00	
361	2.283840e-05	3.059787e-01	3.016148e-01	8.241861e-02	8.138320e-02	1.885960e+00	
362	2.302000e-05	3.085594e-01	3.041814e-01	8.327208e-02	8.223635e-02	1.887823e+00	
363	2.302100e-05	3.085736e-01	3.041955e-01	8.327680e-02	8.224107e-02	1.887833e+00	
364	2.302300e-05	3.086021e-01	3.042238e-01	8.328622e-02	8.225050e-02	1.887854e+00	
365	2.302700e-05	3.086590e-01	3.042804e-01	8.330501e-02	8.226934e-02	1.887895e+00	
366	2.303000e-05	3.087017e-01	3.043227e-01	8.331906e-02	8.228345e-02	1.887926e+00	
367	2.303080e-05	3.087131e-01	3.043340e-01	8.332280e-02	8.228720e-02	1.887934e+00	
368	2.303240e-05	3.087358e-01	3.043566e-01	8.333029e-02	8.229471e-02	1.887950e+00	
369	2.303560e-05	3.087813e-01	3.044018e-01	8.334526e-02	8.230970e-02	1.887983e+00	
370	2.304200e-05	3.088724e-01	3.044922e-01	8.337520e-02	8.233964e-02	1.888049e+00	
371	2.305480e-05	3.090546e-01	3.046729e-01	8.343512e-02	8.239954e-02	1.888180e+00	
372	2.308040e-05	3.094189e-01	3.050346e-01	8.355505e-02	8.251943e-02	1.888443e+00	
373	2.313160e-05	3.101480e-01	3.057581e-01	8.379532e-02	8.275960e-02	1.888968e+00	
374	2.323400e-05	3.116073e-01	3.072064e-01	8.427742e-02	8.324153e-02	1.890018e+00	
375	2.343880e-05	3.145310e-01	3.101087e-01	8.524793e-02	8.421169e-02	1.892119e+00	
376	2.384840e-05	3.203985e-01	3.159367e-01	8.721418e-02	8.617722e-02	1.896318e+00	
377	2.401000e-05	3.227208e-01	3.182445e-01	8.799917e-02	8.696193e-02	1.897975e+00	
378	2.401100e-05	3.227351e-01	3.182588e-01	8.800405e-02	8.696680e-02	1.897985e+00	
379	2.401300e-05	3.227639e-01	3.182874e-01	8.801382e-02	8.697655e-02	1.898005e+00	
380	2.401700e-05	3.228214e-01	3.183446e-01	8.803340e-02	8.699607e-02	1.898046e+00	
381	2.402000e-05	3.228646e-01	3.183876e-01	8.804813e-02	8.701074e-02	1.898077e+00	
382	2.402080e-05	3.228761e-01	3.183990e-01	8.805207e-02	8.701466e-02	1.898085e+00	
383	2.402240e-05	3.228991e-01	3.184219e-01	8.805994e-02	8.702250e-02	1.898102e+00	
384	2.402560e-05	3.229452e-01	3.184678e-01	8.807568e-02	8.703821e-02	1.898135e+00	
385	2.403200e-05	3.230372e-01	3.185595e-01	8.810717e-02	8.706968e-02	1.898200e+00	
386	2.404480e-05	3.232214e-01	3.187428e-01	8.817017e-02	8.713266e-02	1.898331e+00	
387	2.407040e-05	3.235898e-01	3.191097e-01	8.829627e-02	8.725872e-02	1.898594e+00	
388	2.412160e-05	3.243269e-01	3.198437e-01	8.854887e-02	8.751122e-02	1.899119e+00	
389	2.422400e-05	3.258024e-01	3.213129e-01	8.905564e-02	8.801781e-02	1.900168e+00	
390	2.442880e-05	3.287584e-01	3.242552e-01	9.007545e-02	8.903726e-02	1.902266e+00	
391	2.483840e-05	3.346904e-01	3.301552e-01	9.214014e-02	9.110122e-02	1.906462e+00	
392	2.502000e-05	3.373289e-01	3.327775e-01	9.306622e-02	9.202697e-02	1.908322e+00	
393	2.502100e-05	3.373434e-01	3.327920e-01	9.307133e-02	9.203209e-02	1.908332e+00	
394	2.502300e-05	3.373725e-01	3.328209e-01	9.308155e-02	9.204232e-02	1.908352e+00	
395	2.502700e-05	3.374307e-01	3.328786e-01	9.310194e-02	9.206276e-02	1.908393e+00	
396	2.503000e-05	3.374743e-01	3.329219e-01	9.311719e-02	9.207806e-02	1.908424e+00	
397	2.503080e-05	3.374859e-01	3.329335e-01	9.312125e-02	9.208214e-02	1.908432e+00	
398	2.503240e-05	3.375092e-01	3.329566e-01	9.312937e-02	9.209028e-02	1.908449e+00	
399	2.503560e-05	3.375558e-01	3.330027e-01	9.314562e-02	9.210655e-02	1.908481e+00	
400	2.504200e-05	3.376488e-01	3.330950e-01	9.317813e-02	9.213906e-02	1.908547e+00	
401	2.505480e-05	3.378351e-01	3.332797e-01	9.324316e-02	9.220406e-02	1.908678e+00	
402	2.508040e-05	3.382076e-01	3.336492e-01	9.337332e-02	9.233418e-02	1.908940e+00	
403	2.513160e-05	3.389529e-01	3.343883e-01	9.363403e-02	9.259480e-02	1.909464e+00	
404	2.523400e-05	3.404448e-01	3.358678e-01	9.415702e-02	9.311761e-02	1.910513e+00	
405	2.543880e-05	3.434335e-01	3.388320e-01	9.520925e-02	9.416947e-02	1.912609e+00	
406	2.584840e-05	3.494308e-01	3.447824e-01	9.733865e-02	9.629814e-02	1.916800e+00	
407	2.601000e-05	3.518042e-01	3.471377e-01	9.818791e-02	9.714711e-02	1.918454e+00	
408	2.601100e-05	3.518189e-01	3.471523e-01	9.819319e-02	9.715238e-02	1.918464e+00	
409	2.601300e-05	3.518483e-01	3.471815e-01	9.820375e-02	9.716292e-02	1.918484e+00	
410	2.601700e-05	3.519071e-01	3.472399e-01	9.822492e-02	9.718403e-02	1.918525e+00	
411	2.602000e-05	3.519512e-01	3.472837e-01	9.824085e-02	9.719989e-02	1.918556e+00	
412	2.602080e-05	3.519630e-01	3.472954e-01	9.824511e-02	9.720413e-02	1.918564e+00	
413	2.602240e-05	3.519865e-01	3.473188e-01	9.825361e-02	9.721261e-02	1.918580e+00	
414	2.602560e-05	3.520335e-01	3.473655e-01	9.827062e-02	9.722959e-02	1.918613e+00	
415	2.603200e-05	3.521276e-01	3.474591e-01	9.830466e-02	9.726360e-02	1.918679e+00	
416	2.604480e-05	3.523158e-01	3.476462e-01	9.837275e-02	9.733167e-02	1.918810e+00	
417	2.607040e-05	3.526923e-01	3.480205e-01	9.850902e-02	9.746790e-02	1.919071e+00	
418	2.612160e-05	3.534456e-01	3.487695e-01	9.878197e-02	9.774075e-02	1.919595e+00	
419	2.622400e-05	3.549535e-01	3.502683e-01	9.932940e-02	9.828800e-02	1.920642e+00	
420	2.642880e-05	3.579741e-01	3.532694e-01	1.004305e-01	9.938870e-02	1.922737e+00	
421	2.683840e-05	3.640351e-01	3.592841e-01	1.026574e-01	1.016149e-01	1.926924e+00	
422	2.702000e-05	3.667306e-01	3.619559e-01	1.036553e-01	1.026124e-01	1.928780e+00	
423	2.702100e-05	3.667455e-01	3.619706e-01	1.036608e-01	1.026179e-01	1.928790e+00	
424	2.702300e-05	3.667752e-01	3.620001e-01	1.036718e-01	1.026289e-01	1.928810e+00	
425	2.702700e-05	3.668346e-01	3.620589e-01	1.036937e-01	1.026509e-01	1.928851e+00	
426	2.703000e-05	3.668792e-01	3.621030e-01	1.037102e-01	1.026674e-01	1.928882e+00	
427	2.703080e-05	3.668911e-01	3.621148e-01	1.037146e-01	1.026718e-01	1.928890e+00	
428	2.703240e-05	3.669149e-01	3.621383e-01	1.037233e-01	1.026806e-01	1.928906e+00	
429	2.703560e-05	3.669624e-01	3.621853e-01	1.037408e-01	1.026981e-01	1.928939e+00	
430	2.704200e-05	3.670575e-01	3.622793e-01	1.037759e-01	1.027332e-01	1.929004e+00	
431	2.705480e-05	3.672478e-01	3.624675e-01	1.038459e-01	1.028032e-01	1.929135e+00	
432	2.708040e-05	3.676283e-01	3.628437e-01	1.039862e-01	1.029435e-01	1.929397e+00	
433	2.713160e-05	3.683897e-01	3.635965e-01	1.042671e-01	1.032243e-01	1.929920e+00	
434	2.723400e-05	3.699137e-01	3.651030e-01	1.048305e-01	1.037875e-01	1.930966e+00	
435	2.743880e-05	3.729667e-01	3.681202e-01	1.059635e-01	1.049201e-01	1.933058e+00	
436	2.784840e-05	3.790921e-01	3.741713e-01	1.082540e-01	1.072098e-01	1.937241e+00	
437	2.801000e-05	3.815160e-01	3.765642e-01	1.091666e-01	1.081222e-01	1.938890e+00	
438	2.801100e-05	3.815310e-01	3.765790e-01	1.091723e-01	1.081278e-01	1.938900e+00	
439	2.801300e-05	3.815610e-01	3.766086e-01	1.091836e-01	1.081391e-01	1.938921e+00	
440	2.801700e-05	3.816211e-01	3.766679e-01	1.092064e-01	1.081618e-01	1.938962e+00	
441	2.802000e-05	3.816661e-01	3.767125e-01	1.092235e-01	1.081789e-01	1.938992e+00	
442	2.802080e-05	3.816781e-01	3.767243e-01	1.092281e-01	1.081834e-01	1.939000e+00	
443	2.802240e-05	3.817022e-01	3.767481e-01	1.092372e-01	1.081925e-01	1.939017e+00	
444	2.802560e-05	3.817502e-01	3.767956e-01	1.092555e-01	1.082108e-01	1.939049e+00	
445	2.803200e-05	3.818463e-01	3.768906e-01	1.092920e-01	1.082473e-01	1.939115e+00	
446	2.804480e-05	3.820385e-01	3.770806e-01	1.093651e-01	1.083204e-01	1.939245e+00	
447	2.807040e-05	3.824230e-01	3.774607e-01	1.095114e-01	1.084666e-01	1.939507e+00	
448	2.812160e-05	3.831923e-01	3.782210e-01	1.098044e-01	1.087595e-01	1.940029e+00	
449	2.822400e-05	3.847320e-01	3.797421e-01	1.103919e-01	1.093469e-01	1.941074e+00	
450	2.842880e-05	3.878165e-01	3.827860e-01	1.115731e-01	1.105276e-01	1.943164e+00	
451	2.883840e-05	3.940048e-01	3.888778e-01	1.139595e-01	1.129133e-01	1.947342e+00	
452	2.902000e-05	3.967567e-01	3.915795e-01	1.150279e-01	1.139813e-01	1.949193e+00	
453	2.902100e-05	3.967718e-01	3.915944e-01	1.150338e-01	1.139872e-01	1.949204e+00	
454	2.902300e-05	3.968022e-01	3.916241e-01	1.150456e-01	1.139990e-01	1.949224e+00	
455	2.902700e-05	3.968629e-01	3.916835e-01	1.150691e-01	1.140226e-01	1.949265e+00	
456	2.903000e-05	3.969084e-01	3.917281e-01	1.150867e-01	1.140403e-01	1.949295e+00	
457	2.903080e-05	3.969205e-01	3.917400e-01	1.150914e-01	1.140450e-01	1.949304e+00	
458	2.903240e-05	3.969448e-01	3.917637e-01	1.151008e-01	1.140544e-01	1.949320e+00	
459	2.903560e-05	3.969933e-01	3.918113e-01	1.151195e-01	1.140731e-01	1.949352e+00	
460	2.904200e-05	3.970904e-01	3.919063e-01	1.151570e-01	1.141106e-01	1.949418e+00	
461	2.905480e-05	3.972846e-01	3.920963e-01	1.152321e-01	1.141857e-01	1.949548e+00	
462	2.908040e-05	3.976731e-01	3.924765e-01	1.153823e-01	1.143358e-01	1.949809e+00	
463	2.913160e-05	3.984504e-01	3.932367e-01	1.156831e-01	1.146365e-01	1.950331e+00	
464	2.923400e-05	4.000061e-01	3.947573e-01	1.162861e-01	1.152393e-01	1.951375e+00	
465	2.943880e-05	4.031224e-01	3.977994e-01	1.174981e-01	1.164510e-01	1.953462e+00	
466	2.984840e-05	4.093744e-01	4.038857e-01	1.199460e-01	1.188981e-01	1.957635e+00	
467	3.001000e-05	4.118481e-01	4.062862e-01	1.209204e-01	1.198722e-01	1.959281e+00	
468	3.001100e-05	4.118634e-01	4.063010e-01	1.209265e-01	1.198783e-01	1.959291e+00	
469	3.001300e-05	4.118940e-01	4.063307e-01	1.209386e-01	1.198904e-01	1.959312e+00	
470	3.001700e-05	4.119553e-01	4.063902e-01	1.209629e-01	1.199146e-01	1.959352e+00	
471	3.002000e-05	4.120013e-01	4.064348e-01	1.209811e-01	1.199327e-01	1.959383e+00	
472	3.002080e-05	4.120135e-01	4.064467e-01	1.209860e-01	1.199376e-01	1.959391e+00	
473	3.002240e-05	4.120380e-01	4.064705e-01	1.209957e-01	1.199473e-01	1.959407e+00	
474	3.002560e-05	4.120871e-01	4.065181e-01	1.210152e-01	1.199668e-01	1.959440e+00	
475	3.003200e-05	4.121851e-01	4.066133e-01	1.210542e-01	1.200057e-01	1.959505e+00	
476	3.004480e-05	4.123813e-01	4.068036e-01	1.211322e-01	1.200837e-01	1.959635e+00	
477	3.007040e-05	4.127736e-01	4.071844e-01	1.212883e-01	1.202397e-01	1.959896e+00	
478	3.012160e-05	4.135587e-01	4.079457e-01	1.216008e-01	1.205521e-01	1.960417e+00	
479	3.022400e-05	4.151300e-01	4.094678e-01	1.222273e-01	1.211784e-01	1.961460e+00	
480	3.042880e-05	4.182774e-01	4.125084e-01	1.234861e-01	1.224369e-01	1.963545e+00	
481	3.083840e-05	4.245913e-01	4.185723e-01	1.260268e-01	1.249768e-01	1.967713e+00	
482	3.102000e-05	4.273989e-01	4.212513e-01	1.271630e-01	1.261126e-01	1.969560e+00	
483	3.102100e-05	4.274143e-01	4.212660e-01	1.271692e-01	1.261189e-01	1.969570e+00	
484	3.102300e-05	4.274453e-01	4.212954e-01	1.271818e-01	1.261314e-01	1.969591e+00	
485	3.102700e-05	4.275072e-01	4.213543e-01	1.272068e-01	1.261565e-01	1.969631e+00	
486	3.103000e-05	4.275536e-01	4.213984e-01	1.272255e-01	1.261753e-01	1.969662e+00	
487	3.103080e-05	4.275660e-01	4.214102e-01	1.272305e-01	1.261803e-01	1.969670e+00	
488	3.103240e-05	4.275907e-01	4.214337e-01	1.272405e-01	1.261903e-01	1.969686e+00	
489	3.103560e-05	4.276403e-01	4.214807e-01	1.272604e-01	1.262102e-01	1.969719e+00	
490	3.104200e-05	4.277393e-01	4.215748e-01	1.273003e-01	1.262501e-01	1.969784e+00	
491	3.105480e-05	4.279374e-01	4.217629e-01	1.273801e-01	1.263299e-01	1.969914e+00	
492	3.108040e-05	4.283338e-01	4.221389e-01	1.275398e-01	1.264896e-01	1.970174e+00	
493	3.113160e-05	4.291267e-01	4.228906e-01	1.278596e-01	1.268093e-01	1.970695e+00	
494	3.123400e-05	4.307137e-01	4.243924e-01	1.285006e-01	1.274501e-01	1.971736e+00	
495	3.143880e-05	4.338926e-01	4.273897e-01	1.297882e-01	1.287373e-01	1.973819e+00	
496	3.184840e-05	4.402694e-01	4.333571e-01	1.323854e-01	1.313338e-01	1.977981e+00	
497	3.201000e-05	4.427922e-01	4.356989e-01	1.334182e-01	1.323662e-01	1.979623e+00	
498	3.201100e-05	4.428078e-01	4.357134e-01	1.334246e-01	1.323726e-01	1.979633e+00	
499	3.201300e-05	4.428391e-01	4.357423e-01	1.334374e-01	1.323854e-01	1.979654e+00	
500	3.201700e-05	4.429016e-01	4.358002e-01	1.334631e-01	1.324110e-01	1.979694e+00	
501	3.202000e-05	4.429484e-01	4.358436e-01	1.334824e-01	1.324303e-01	1.979725e+00	
502	3.202080e-05	4.429609e-01	4.358552e-01	1.334876e-01	1.324354e-01	1.979733e+00	
503	3.202240e-05	4.429859e-01	4.358784e-01	1.334979e-01	1.324457e-01	1.979749e+00	
504	3.202560e-05	4.430359e-01	4.359247e-01	1.335186e-01	1.324663e-01	1.979782e+00	
505	3.203200e-05	4.431359e-01	4.360174e-01	1.335598e-01	1.325076e-01	1.979847e+00	
506	3.204480e-05	4.433360e-01	4.362028e-01	1.336424e-01	1.325902e-01	1.979977e+00	
507	3.207040e-05	4.437361e-01	4.365734e-01	1.338077e-01	1.327554e-01	1.980237e+00	
508	3.212160e-05	4.445367e-01	4.373141e-01	1.341385e-01	1.330861e-01	1.980757e+00	
509	3.222400e-05	4.461391e-01	4.387929e-01	1.348015e-01	1.337489e-01	1.981797e+00	
510	3.242880e-05	4.493486e-01	4.417394e-01	1.361329e-01	1.350799e-01	1.983876e+00	
511	3.283840e-05	4.557866e-01	4.475853e-01	1.388163e-01	1.377625e-01	1.988034e+00	
512	3.302000e-05	4.586490e-01	4.501546e-01	1.400147e-01	1.389607e-01	1.989876e+00	
513	3.302100e-05	4.586647e-01	4.501687e-01	1.400214e-01	1.389673e-01	1.989886e+00	
514	3.302300e-05	4.586963e-01	4.501969e-01	1.400346e-01	1.389805e-01	1.989907e+00	
515	3.302700e-05	4.587594e-01	4.502532e-01	1.400609e-01	1.390069e-01	1.989947e+00	
516	3.303000e-05	4.588067e-01	4.502955e-01	1.400807e-01	1.390267e-01	1.989978e+00	
517	3.303080e-05	4.588193e-01	4.503067e-01	1.400859e-01	1.390320e-01	1.989986e+00	
518	3.303240e-05	4.588446e-01	4.503292e-01	1.400965e-01	1.390425e-01	1.990002e+00	
519	3.303560e-05	4.588951e-01	4.503742e-01	1.401175e-01	1.390636e-01	1.990034e+00	
520	3.304200e-05	4.589961e-01	4.504643e-01	1.401596e-01	1.391057e-01	1.990099e+00	
521	3.305480e-05	4.591980e-01	4.506442e-01	1.402437e-01	1.391898e-01	1.990229e+00	
522	3.308040e-05	4.596021e-01	4.510040e-01	1.404122e-01	1.393582e-01	1.990489e+00	
523	3.313160e-05	4.604104e-01	4.517226e-01	1.407493e-01	1.396952e-01	1.991008e+00	
524	3.323400e-05	4.620284e-01	4.531564e-01	1.414249e-01	1.403706e-01	1.992047e+00	
525	3.343880e-05	4.652689e-01	4.560111e-01	1.427809e-01	1.417263e-01	1.994124e+00	
526	3.384840e-05	4.717688e-01	4.616673e-01	1.455122e-01	1.444568e-01	1.998276e+00	
527	3.401000e-05	4.743401e-01	4.638777e-01	1.465967e-01	1.455410e-01	1.999913e+00	
528	3.401100e-05	4.743561e-01	4.638913e-01	1.466034e-01	1.455477e-01	1.999923e+00	
529	3.401300e-05	4.743879e-01	4.639186e-01	1.466169e-01	1.455612e-01	1.999943e+00	
530	3.401700e-05	4.744516e-01	4.639732e-01	1.466439e-01	1.455881e-01	1.999984e+00	
531	3.402000e-05	4.744994e-01	4.640142e-01	1.466642e-01	1.456083e-01	2.000014e+00	
532	3.402080e-05	4.745121e-01	4.640251e-01	1.466696e-01	1.456137e-01	2.000022e+00	
533	3.402240e-05	4.745376e-01	4.640469e-01	1.466804e-01	1.456245e-01	2.000039e+00	
534	3.402560e-05	4.745886e-01	4.640907e-01	1.467021e-01	1.456462e-01	2.000071e+00	
535	3.403200e-05	4.746905e-01	4.641781e-01	1.467454e-01	1.456894e-01	2.000136e+00	
536	3.404480e-05	4.748944e-01	4.643529e-01	1.468320e-01	1.457761e-01	2.000266e+00	
537	3.407040e-05	4.753022e-01	4.647024e-01	1.470054e-01	1.459494e-01	2.000525e+00	
538	3.412160e-05	4.761181e-01	4.654006e-01	1.473525e-01	1.462964e-01	2.001044e+00	
539	3.422400e-05	4.777512e-01	4.667935e-01	1.480477e-01	1.469914e-01	2.002081e+00	
540	3.442880e-05	4.810220e-01	4.695643e-01	1.494427e-01	1.483860e-01	2.004155e+00	
541	3.483840e-05	4.875822e-01	4.750465e-01	1.522502e-01	1.511929e-01	2.008301e+00	
542	3.502000e-05	4.904987e-01	4.774508e-01	1.535024e-01	1.524447e-01	2.010139e+00	
543	3.502100e-05	4.905148e-01	4.774640e-01	1.535093e-01	1.524516e-01	2.010149e+00	
544	3.502300e-05	4.905469e-01	4.774904e-01	1.535231e-01	1.524654e-01	2.010169e+00	
545	3.502700e-05	4.906112e-01	4.775431e-01	1.535506e-01	1.524930e-01	2.010210e+00	
546	3.503000e-05	4.906594e-01	4.775826e-01	1.535712e-01	1.525137e-01	2.010240e+00	
547	3.503080e-05	4.906723e-01	4.775931e-01	1.535767e-01	1.525192e-01	2.010248e+00	
548	3.503240e-05	4.906980e-01	4.776142e-01	1.535877e-01	1.525302e-01	2.010264e+00	
549	3.503560e-05	4.907495e-01	4.776563e-01	1.536097e-01	1.525522e-01	2.010297e+00	
550	3.504200e-05	4.908523e-01	4.777405e-01	1.536536e-01	1.525961e-01	2.010361e+00	
551	3.505480e-05	4.910581e-01	4.779088e-01	1.537416e-01	1.526840e-01	2.010491e+00	
552	3.508040e-05	4.914698e-01	4.782452e-01	1.539175e-01	1.528599e-01	2.010750e+00	
553	3.513160e-05	4.922934e-01	4.789170e-01	1.542695e-01	1.532118e-01	2.011268e+00	
554	3.523400e-05	4.939418e-01	4.802571e-01	1.549747e-01	1.539168e-01	2.012303e+00	
555	3.543880e-05	4.972432e-01	4.829234e-01	1.563891e-01	1.553309e-01	2.014375e+00	
556	3.584840e-05	5.038645e-01	4.882008e-01	1.592339e-01	1.581750e-01	2.018515e+00	
557	3.601000e-05	5.064836e-01	4.902626e-01	1.603621e-01	1.593029e-01	2.020148e+00	
558	3.601100e-05	5.064998e-01	4.902753e-01	1.603691e-01	1.593098e-01	2.020158e+00	
559	3.601300e-05	5.065323e-01	4.903007e-01	1.603831e-01	1.593238e-01	2.020178e+00	
560	3.601700e-05	5.065972e-01	4.903517e-01	1.604111e-01	1.593518e-01	2.020219e+00	
561	3.602000e-05	5.066458e-01	4.903899e-01	1.604322e-01	1.593728e-01	2.020249e+00	
562	3.602080e-05	5.066588e-01	4.904001e-01	1.604378e-01	1.593784e-01	2.020257e+00	
563	3.602240e-05	5.066848e-01	4.904205e-01	1.604491e-01	1.593897e-01	2.020273e+00	
564	3.602560e-05	5.067367e-01	4.904613e-01	1.604716e-01	1.594122e-01	2.020305e+00	
565	3.603200e-05	5.068405e-01	4.905430e-01	1.605166e-01	1.594572e-01	2.020370e+00	
566	3.604480e-05	5.070481e-01	4.907062e-01	1.606067e-01	1.595472e-01	2.020499e+00	
567	3.607040e-05	5.074635e-01	4.910325e-01	1.607869e-01	1.597274e-01	2.020758e+00	
568	3.612160e-05	5.082946e-01	4.916844e-01	1.611476e-01	1.600879e-01	2.021275e+00	
569	3.622400e-05	5.099579e-01	4.929849e-01	1.618698e-01	1.608100e-01	2.022309e+00	
570	3.642880e-05	5.132891e-01	4.955727e-01	1.633181e-01	1.622579e-01	2.024378e+00	
571	3.683840e-05	5.199699e-01	5.006962e-01	1.662291e-01	1.651683e-01	2.028512e+00	
572	3.702000e-05	5.229398e-01	5.029461e-01	1.675259e-01	1.664647e-01	2.030344e+00	
573	3.702100e-05	5.229561e-01	5.029585e-01	1.675330e-01	1.664718e-01	2.030354e+00	
574	3.702300e-05	5.229889e-01	5.029832e-01	1.675473e-01	1.664861e-01	2.030375e+00	
575	3.702700e-05	5.230543e-01	5.030325e-01	1.675758e-01	1.665147e-01	2.030415e+00	
576	3.703000e-05	5.231034e-01	5.030695e-01	1.675972e-01	1.665361e-01	2.030445e+00	
577	3.703080e-05	5.231165e-01	5.030793e-01	1.676028e-01	1.665418e-01	2.030453e+00	
578	3.703240e-05	5.231427e-01	5.030991e-01	1.676142e-01	1.665532e-01	2.030469e+00	
579	3.703560e-05	5.231951e-01	5.031385e-01	1.676370e-01	1.665760e-01	2.030502e+00	
580	3.704200e-05	5.232999e-01	5.032173e-01	1.676825e-01	1.666215e-01	2.030566e+00	
581	3.705480e-05	5.235094e-01	5.033749e-01	1.677735e-01	1.667125e-01	2.030695e+00	
582	3.708040e-05	5.239286e-01	5.036898e-01	1.679556e-01	1.668945e-01	2.030954e+00	
583	3.713160e-05	5.247672e-01	5.043189e-01	1.683200e-01	1.672589e-01	2.031470e+00	
584	3.723400e-05	5.264456e-01	5.055742e-01	1.690497e-01	1.679884e-01	2.032503e+00	
585	3.743880e-05	5.298070e-01	5.080733e-01	1.705125e-01	1.694509e-01	2.034568e+00	
586	3.784840e-05	5.365480e-01	5.130268e-01	1.734514e-01	1.723891e-01	2.038696e+00	
587	3.801000e-05	5.392143e-01	5.149652e-01	1.746157e-01	1.735530e-01	2.040324e+00	
588	3.801100e-05	5.392308e-01	5.149771e-01	1.746229e-01	1.735603e-01	2.040334e+00	
589	3.801300e-05	5.392638e-01	5.150011e-01	1.746373e-01	1.735747e-01	2.040354e+00	
590	3.801700e-05	5.393299e-01	5.150490e-01	1.746663e-01	1.736036e-01	2.040395e+00	
591	3.802000e-05	5.393794e-01	5.150850e-01	1.746880e-01	1.736252e-01	2.040425e+00	
592	3.802080e-05	5.393926e-01	5.150946e-01	1.746938e-01	1.736310e-01	2.040433e+00	
593	3.802240e-05	5.394190e-01	5.151138e-01	1.747054e-01	1.736426e-01	2.040449e+00	
594	3.802560e-05	5.394719e-01	5.151522e-01	1.747286e-01	1.736658e-01	2.040481e+00	
595	3.803200e-05	5.395776e-01	5.152291e-01	1.747751e-01	1.737122e-01	2.040546e+00	
596	3.804480e-05	5.397890e-01	5.153827e-01	1.748680e-01	1.738051e-01	2.040675e+00	
597	3.807040e-05	5.402118e-01	5.156899e-01	1.750539e-01	1.739909e-01	2.040932e+00	
598	3.812160e-05	5.410578e-01	5.163036e-01	1.754258e-01	1.743628e-01	2.041448e+00	
599	3.822400e-05	5.427509e-01	5.175285e-01	1.761704e-01	1.751072e-01	2.042479e+00	
600	3.842880e-05	5.461417e-01	5.199679e-01	1.776627e-01	1.765992e-01	2.044541e+00	
601	3.883840e-05	5.529413e-01	5.248059e-01	1.806595e-01	1.795953e-01	2.048663e+00	
602	3.902000e-05	5.559637e-01	5.269342e-01	1.819932e-01	1.809287e-01	2.050490e+00	
603	3.902100e-05	5.559804e-01	5.269459e-01	1.820006e-01	1.809361e-01	2.050500e+00	
604	3.902300e-05	5.560137e-01	5.269693e-01	1.820152e-01	1.809508e-01	2.050520e+00	
605	3.902700e-05	5.560803e-01	5.270160e-01	1.820446e-01	1.809801e-01	2.050560e+00	
606	3.903000e-05	5.561303e-01	5.270510e-01	1.820665e-01	1.810021e-01	2.050590e+00	
607	3.903080e-05	5.561436e-01	5.270603e-01	1.820724e-01	1.810080e-01	2.050598e+00	
608	3.903240e-05	5.561703e-01	5.270790e-01	1.820841e-01	1.810197e-01	2.050615e+00	
609	3.903560e-05	5.562236e-01	5.271163e-01	1.821075e-01	1.810431e-01	2.050647e+00	
610	3.904200e-05	5.563302e-01	5.271909e-01	1.821543e-01	1.810899e-01	2.050711e+00	
611	3.905480e-05	5.565434e-01	5.273400e-01	1.822479e-01	1.811835e-01	2.050840e+00	
612	3.908040e-05	5.569700e-01	5.276380e-01	1.824351e-01	1.813707e-01	2.051097e+00	
613	3.913160e-05	5.578235e-01	5.282336e-01	1.828098e-01	1.817453e-01	2.051612e+00	
614	3.923400e-05	5.595314e-01	5.294224e-01	1.835599e-01	1.824953e-01	2.052642e+00	
615	3.943880e-05	5.629519e-01	5.317909e-01	1.850629e-01	1.839979e-01	2.054700e+00	
616	3.984840e-05	5.698109e-01	5.364922e-01	1.880799e-01	1.870143e-01	2.058816e+00	
617	4.001000e-05	5.725236e-01	5.383345e-01	1.892743e-01	1.882084e-01	2.060439e+00	
618	4.001100e-05	5.725404e-01	5.383459e-01	1.892817e-01	1.882158e-01	2.060449e+00	
619	4.001300e-05	5.725740e-01	5.383687e-01	1.892965e-01	1.882306e-01	2.060469e+00	
620	4.001700e-05	5.726412e-01	5.384143e-01	1.893262e-01	1.882602e-01	2.060509e+00	
621	4.002000e-05	5.726916e-01	5.384485e-01	1.893485e-01	1.882824e-01	2.060539e+00	
622	4.002080e-05	5.727051e-01	5.384576e-01	1.893544e-01	1.882884e-01	2.060547e+00	
623	4.002240e-05	5.727319e-01	5.384759e-01	1.893663e-01	1.883002e-01	2.060563e+00	
624	4.002560e-05	5.727857e-01	5.385124e-01	1.893901e-01	1.883240e-01	2.060595e+00	
625	4.003200e-05	5.728932e-01	5.385855e-01	1.894378e-01	1.883716e-01	2.060660e+00	
626	4.004480e-05	5.731083e-01	5.387317e-01	1.895330e-01	1.884669e-01	2.060788e+00	
627	4.007040e-05	5.735385e-01	5.390238e-01	1.897236e-01	1.886574e-01	2.061045e+00	
628	4.012160e-05	5.743992e-01	5.396076e-01	1.901049e-01	1.890386e-01	2.061559e+00	
629	4.022400e-05	5.761217e-01	5.407732e-01	1.908681e-01	1.898017e-01	2.062587e+00	
630	4.042880e-05	5.795711e-01	5.430959e-01	1.923973e-01	1.913305e-01	2.064643e+00	
631	4.083840e-05	5.864878e-01	5.477081e-01	1.954656e-01	1.943982e-01	2.068751e+00	
632	4.102000e-05	5.895620e-01	5.497394e-01	1.968303e-01	1.957626e-01	2.070572e+00	
633	4.102100e-05	5.895790e-01	5.497506e-01	1.968378e-01	1.957701e-01	2.070582e+00	
634	4.102300e-05	5.896129e-01	5.497729e-01	1.968528e-01	1.957851e-01	2.070602e+00	
635	4.102700e-05	5.896806e-01	5.498175e-01	1.968828e-01	1.958152e-01	2.070642e+00	
636	4.103000e-05	5.897315e-01	5.498509e-01	1.969053e-01	1.958377e-01	2.070672e+00	
637	4.103080e-05	5.897450e-01	5.498598e-01	1.969112e-01	1.958437e-01	2.070680e+00	
638	4.103240e-05	5.897721e-01	5.498776e-01	1.969232e-01	1.958557e-01	2.070697e+00	
639	4.103560e-05	5.898263e-01	5.499132e-01	1.969471e-01	1.958796e-01	2.070729e+00	
640	4.104200e-05	5.899348e-01	5.499843e-01	1.969950e-01	1.959275e-01	2.070793e+00	
641	4.105480e-05	5.901517e-01	5.501266e-01	1.970908e-01	1.960232e-01	2.070921e+00	
642	4.108040e-05	5.905856e-01	5.504111e-01	1.972823e-01	1.962148e-01	2.071178e+00	
643	4.113160e-05	5.914536e-01	5.509797e-01	1.976656e-01	1.965979e-01	2.071691e+00	
644	4.123400e-05	5.931907e-01	5.521148e-01	1.984327e-01	1.973649e-01	2.072717e+00	
645	4.143880e-05	5.966695e-01	5.543774e-01	1.999694e-01	1.989012e-01	2.074769e+00	
646	4.184840e-05	6.036447e-01	5.588725e-01	2.030519e-01	2.019831e-01	2.078871e+00	
647	4.201000e-05	6.064031e-01	5.606353e-01	2.042714e-01	2.032024e-01	2.080489e+00	
648	4.201100e-05	6.064202e-01	5.606462e-01	2.042790e-01	2.032099e-01	2.080499e+00	
649	4.201300e-05	6.064543e-01	5.606680e-01	2.042941e-01	2.032251e-01	2.080519e+00	
650	4.201700e-05	6.065226e-01	5.607116e-01	2.043244e-01	2.032553e-01	2.080559e+00	
651	4.202000e-05	6.065739e-01	5.607444e-01	2.043472e-01	2.032780e-01	2.080589e+00	
652	4.202080e-05	6.065876e-01	5.607531e-01	2.043533e-01	2.032840e-01	2.080597e+00	
653	4.202240e-05	6.066149e-01	5.607706e-01	2.043654e-01	2.032962e-01	2.080613e+00	
654	4.202560e-05	6.066696e-01	5.608056e-01	2.043897e-01	2.033204e-01	2.080645e+00	
655	4.203200e-05	6.067789e-01	5.608755e-01	2.044383e-01	2.033690e-01	2.080709e+00	
656	4.204480e-05	6.069976e-01	5.610154e-01	2.045356e-01	2.034663e-01	2.080837e+00	
657	4.207040e-05	6.074350e-01	5.612951e-01	2.047301e-01	2.036607e-01	2.081093e+00	
658	4.212160e-05	6.083102e-01	5.618539e-01	2.051193e-01	2.040498e-01	2.081605e+00	
659	4.222400e-05	6.100616e-01	5.629698e-01	2.058981e-01	2.048285e-01	2.082630e+00	
660	4.242880e-05	6.135688e-01	5.651945e-01	2.074581e-01	2.063881e-01	2.084679e+00	
661	4.283840e-05	6.206009e-01	5.696152e-01	2.105864e-01	2.095158e-01	2.088773e+00	
662	4.302000e-05	6.237261e-01	5.715634e-01	2.119769e-01	2.109061e-01	2.090588e+00	
663	4.302100e-05	6.237433e-01	5.715741e-01	2.119846e-01	2.109138e-01	2.090598e+00	
664	4.302300e-05	6.237778e-01	5.715955e-01	2.119999e-01	2.109291e-01	2.090618e+00	
665	4.302700e-05	6.238467e-01	5.716383e-01	2.120305e-01	2.109597e-01	2.090658e+00	
666	4.303000e-05	6.238983e-01	5.716703e-01	2.120533e-01	2.109826e-01	2.090688e+00	
667	4.303080e-05	6.239121e-01	5.716788e-01	2.120594e-01	2.109887e-01	2.090696e+00	
668	4.303240e-05	6.239397e-01	5.716959e-01	2.120716e-01	2.110010e-01	2.090712e+00	
669	4.303560e-05	6.239948e-01	5.717300e-01	2.120960e-01	2.110254e-01	2.090744e+00	
670	4.304200e-05	6.241050e-01	5.717983e-01	2.121448e-01	2.110741e-01	2.090808e+00	
671	4.305480e-05	6.243255e-01	5.719347e-01	2.122424e-01	2.111717e-01	2.090936e+00	
672	4.308040e-05	6.247666e-01	5.722076e-01	2.124375e-01	2.113668e-01	2.091192e+00	
673	4.313160e-05	6.256489e-01	5.727529e-01	2.128280e-01	2.117572e-01	2.091703e+00	
674	4.323400e-05	6.274148e-01	5.738417e-01	2.136094e-01	2.125384e-01	2.092726e+00	
675	4.343880e-05	6.309509e-01	5.760128e-01	2.151742e-01	2.141029e-01	2.094771e+00	
676	4.384840e-05	6.380405e-01	5.803286e-01	2.183115e-01	2.172396e-01	2.098858e+00	
677	4.401000e-05	6.408440e-01	5.820219e-01	2.195520e-01	2.184799e-01	2.100470e+00	
678	4.401100e-05	6.408613e-01	5.820324e-01	2.195597e-01	2.184876e-01	2.100480e+00	
679	4.401300e-05	6.408961e-01	5.820533e-01	2.195751e-01	2.185029e-01	2.100500e+00	
680	4.401700e-05	6.409655e-01	5.820953e-01	2.196059e-01	2.185337e-01	2.100540e+00	
681	4.402000e-05	6.410176e-01	5.821267e-01	2.196291e-01	2.185568e-01	2.100570e+00	
682	4.402080e-05	6.410315e-01	5.821351e-01	2.196352e-01	2.185629e-01	2.100578e+00	
683	4.402240e-05	6.410592e-01	5.821519e-01	2.196476e-01	2.185753e-01	2.100594e+00	
684	4.402560e-05	6.411148e-01	5.821856e-01	2.196723e-01	2.186000e-01	2.100626e+00	
685	4.403200e-05	6.412259e-01	5.822528e-01	2.197218e-01	2.186494e-01	2.100690e+00	
686	4.404480e-05	6.414482e-01	5.823872e-01	2.198207e-01	2.187483e-01	2.100817e+00	
687	4.407040e-05	6.418927e-01	5.826559e-01	2.200185e-01	2.189460e-01	2.101073e+00	
688	4.412160e-05	6.427821e-01	5.831929e-01	2.204142e-01	2.193417e-01	2.101583e+00	
689	4.422400e-05	6.445620e-01	5.842654e-01	2.212061e-01	2.201334e-01	2.102604e+00	
690	4.442880e-05	6.481262e-01	5.864041e-01	2.227917e-01	2.217188e-01	2.104646e+00	
691	4.483840e-05	6.552718e-01	5.906569e-01	2.259701e-01	2.248965e-01	2.108726e+00	
692	4.502000e-05	6.584472e-01	5.925322e-01	2.273822e-01	2.263083e-01	2.110534e+00	
693	4.502100e-05	6.584647e-01	5.925425e-01	2.273899e-01	2.263161e-01	2.110544e+00	
694	4.502300e-05	6.584997e-01	5.925631e-01	2.274055e-01	2.263316e-01	2.110564e+00	
695	4.502700e-05	6.585697e-01	5.926042e-01	2.274365e-01	2.263627e-01	2.110604e+00	
696	4.503000e-05	6.586222e-01	5.926351e-01	2.274598e-01	2.263860e-01	2.110634e+00	
697	4.503080e-05	6.586362e-01	5.926433e-01	2.274660e-01	2.263922e-01	2.110642e+00	
698	4.503240e-05	6.586642e-01	5.926597e-01	2.274783e-01	2.264046e-01	2.110658e+00	
699	4.503560e-05	6.587202e-01	5.926926e-01	2.275031e-01	2.264294e-01	2.110690e+00	
700	4.504200e-05	6.588322e-01	5.927583e-01	2.275526e-01	2.264789e-01	2.110753e+00	
701	4.505480e-05	6.590563e-01	5.928896e-01	2.276517e-01	2.265780e-01	2.110881e+00	
702	4.508040e-05	6.595044e-01	5.931523e-01	2.278499e-01	2.267761e-01	2.111136e+00	
703	4.513160e-05	6.604009e-01	5.936772e-01	2.282463e-01	2.271725e-01	2.111645e+00	
704	4.523400e-05	6.621950e-01	5.947256e-01	2.290396e-01	2.279656e-01	2.112664e+00	
705	4.543880e-05	6.657875e-01	5.968167e-01	2.306278e-01	2.295535e-01	2.114702e+00	
706	4.584840e-05	6.729898e-01	6.009762e-01	2.338105e-01	2.327356e-01	2.118775e+00	
707	4.601000e-05	6.758376e-01	6.026093e-01	2.350686e-01	2.339934e-01	2.120381e+00	
708	4.601100e-05	6.758552e-01	6.026194e-01	2.350764e-01	2.340012e-01	2.120391e+00	
709	4.601300e-05	6.758905e-01	6.026396e-01	2.350920e-01	2.340168e-01	2.120411e+00	
710	4.601700e-05	6.759610e-01	6.026800e-01	2.351232e-01	2.340480e-01	2.120451e+00	
711	4.602000e-05	6.760139e-01	6.027104e-01	2.351467e-01	2.340714e-01	2.120481e+00	
712	4.602080e-05	6.760281e-01	6.027185e-01	2.351529e-01	2.340776e-01	2.120488e+00	
713	4.602240e-05	6.760563e-01	6.027347e-01	2.351655e-01	2.340901e-01	2.120504e+00	
714	4.602560e-05	6.761127e-01	6.027671e-01	2.351905e-01	2.341152e-01	2.120536e+00	
715	4.603200e-05	6.762256e-01	6.028320e-01	2.352407e-01	2.341653e-01	2.120600e+00	
716	4.604480e-05	6.764513e-01	6.029616e-01	2.353409e-01	2.342655e-01	2.120727e+00	
717	4.607040e-05	6.769029e-01	6.032209e-01	2.355415e-01	2.344660e-01	2.120981e+00	
718	4.612160e-05	6.778064e-01	6.037390e-01	2.359426e-01	2.348671e-01	2.121490e+00	
719	4.622400e-05	6.796143e-01	6.047740e-01	2.367454e-01	2.356697e-01	2.122507e+00	
720	4.642880e-05	6.832344e-01	6.068388e-01	2.383523e-01	2.372763e-01	2.124541e+00	
721	4.683840e-05	6.904918e-01	6.109476e-01	2.415720e-01	2.404955e-01	2.128607e+00	
722	4.702000e-05	6.937166e-01	6.127608e-01	2.430020e-01	2.419251e-01	2.130408e+00	
723	4.702100e-05	6.937344e-01	6.127708e-01	2.430098e-01	2.419330e-01	2.130418e+00	
724	4.702300e-05	6.937700e-01	6.127907e-01	2.430256e-01	2.419487e-01	2.130438e+00	
725	4.702700e-05	6.938410e-01	6.128305e-01	2.430570e-01	2.419802e-01	2.130477e+00	
726	4.703000e-05	6.938944e-01	6.128603e-01	2.430805e-01	2.420038e-01	2.130507e+00	
727	4.703080e-05	6.939086e-01	6.128682e-01	2.430868e-01	2.420101e-01	2.130515e+00	
728	4.703240e-05	6.939370e-01	6.128841e-01	2.430993e-01	2.420226e-01	2.130531e+00	
729	4.703560e-05	6.939939e-01	6.129159e-01	2.431244e-01	2.420477e-01	2.130563e+00	
730	4.704200e-05	6.941076e-01	6.129794e-01	2.431746e-01	2.420979e-01	2.130626e+00	
731	4.705480e-05	6.943351e-01	6.131064e-01	2.432749e-01	2.421982e-01	2.130753e+00	
732	4.708040e-05	6.947902e-01	6.133604e-01	2.434755e-01	2.423988e-01	2.131007e+00	
733	4.713160e-05	6.957007e-01	6.138681e-01	2.438769e-01	2.428001e-01	2.131515e+00	
734	4.723400e-05	6.975226e-01	6.148823e-01	2.446800e-01	2.436030e-01	2.132530e+00	
735	4.743880e-05	7.011707e-01	6.169058e-01	2.462875e-01	2.452103e-01	2.134560e+00	
736	4.784840e-05	7.084838e-01	6.209346e-01	2.495079e-01	2.484301e-01	2.138618e+00	
737	4.801000e-05	7.113752e-01	6.225175e-01	2.507804e-01	2.497023e-01	2.140218e+00	
738	4.801100e-05	7.113931e-01	6.225273e-01	2.507883e-01	2.497102e-01	2.140228e+00	
739	4.801300e-05	7.114289e-01	6.225469e-01	2.508040e-01	2.497259e-01	2.140247e+00	
740	4.801700e-05	7.115005e-01	6.225861e-01	2.508356e-01	2.497574e-01	2.140287e+00	
741	4.802000e-05	7.115542e-01	6.226156e-01	2.508594e-01	2.497811e-01	2.140317e+00	
742	4.802080e-05	7.115685e-01	6.226234e-01	2.508657e-01	2.497874e-01	2.140325e+00	
743	4.802240e-05	7.115972e-01	6.226391e-01	2.508784e-01	2.498001e-01	2.140340e+00	
744	4.802560e-05	7.116545e-01	6.226706e-01	2.509037e-01	2.498254e-01	2.140372e+00	
745	4.803200e-05	7.117691e-01	6.227335e-01	2.509544e-01	2.498761e-01	2.140435e+00	
746	4.804480e-05	7.119983e-01	6.228592e-01	2.510558e-01	2.499775e-01	2.140562e+00	
747	4.807040e-05	7.124568e-01	6.231106e-01	2.512586e-01	2.501802e-01	2.140815e+00	
748	4.812160e-05	7.133740e-01	6.236131e-01	2.516643e-01	2.505858e-01	2.141322e+00	
749	4.822400e-05	7.152096e-01	6.246172e-01	2.524759e-01	2.513973e-01	2.142336e+00	
750	4.842880e-05	7.188848e-01	6.266210e-01	2.541005e-01	2.530216e-01	2.144362e+00	
751	4.883840e-05	7.262521e-01	6.306121e-01	2.573544e-01	2.562749e-01	2.148411e+00	
752	4.902000e-05	7.295256e-01	6.323749e-01	2.587991e-01	2.577194e-01	2.150206e+00	
753	4.902100e-05	7.295436e-01	6.323846e-01	2.588071e-01	2.577273e-01	2.150216e+00	
754	4.902300e-05	7.295797e-01	6.324040e-01	2.588230e-01	2.577432e-01	2.150235e+00	
755	4.902700e-05	7.296518e-01	6.324427e-01	2.588547e-01	2.577750e-01	2.150275e+00	
756	4.903000e-05	7.297059e-01	6.324717e-01	2.588785e-01	2.577989e-01	2.150305e+00	
757	4.903080e-05	7.297204e-01	6.324794e-01	2.588848e-01	2.578052e-01	2.150312e+00	
758	4.903240e-05	7.297492e-01	6.324948e-01	2.588975e-01	2.578179e-01	2.150328e+00	
759	4.903560e-05	7.298070e-01	6.325257e-01	2.589228e-01	2.578432e-01	2.150360e+00	
760	4.904200e-05	7.299224e-01	6.325875e-01	2.589735e-01	2.578939e-01	2.150423e+00	
761	4.905480e-05	7.301534e-01	6.327110e-01	2.590748e-01	2.579952e-01	2.150550e+00	
762	4.908040e-05	7.306153e-01	6.329580e-01	2.592775e-01	2.581979e-01	2.150802e+00	
763	4.913160e-05	7.315394e-01	6.334517e-01	2.596830e-01	2.586033e-01	2.151308e+00	
764	4.923400e-05	7.333887e-01	6.344382e-01	2.604942e-01	2.594144e-01	2.152320e+00	
765	4.943880e-05	7.370914e-01	6.364076e-01	2.621178e-01	2.610376e-01	2.154342e+00	
766	4.984840e-05	7.445135e-01	6.403318e-01	2.653693e-01	2.642885e-01	2.158383e+00	
767	5.001000e-05	7.474479e-01	6.418750e-01	2.666537e-01	2.655727e-01	2.159977e+00	
768	5.001100e-05	7.474660e-01	6.418845e-01	2.666617e-01	2.655807e-01	2.159986e+00	
769	5.001300e-05	7.475024e-01	6.419036e-01	2.666776e-01	2.655966e-01	2.160006e+00	
770	5.001700e-05	7.475750e-01	6.419419e-01	2.667095e-01	2.656284e-01	2.160046e+00	
771	5.002000e-05	7.476295e-01	6.419706e-01	2.667334e-01	2.656523e-01	2.160075e+00	
772	5.002080e-05	7.476441e-01	6.419782e-01	2.667398e-01	2.656587e-01	2.160083e+00	
773	5.002240e-05	7.476732e-01	6.419936e-01	2.667526e-01	2.656714e-01	2.160099e+00	
774	5.002560e-05	7.477313e-01	6.420242e-01	2.667782e-01	2.656970e-01	2.160130e+00	
775	5.003200e-05	7.478476e-01	6.420856e-01	2.668294e-01	2.657481e-01	2.160194e+00	
776	5.004480e-05	7.480802e-01	6.422082e-01	2.669317e-01	2.658504e-01	2.160320e+00	
777	5.007040e-05	7.485455e-01	6.424534e-01	2.671364e-01	2.660551e-01	2.160572e+00	
778	5.012160e-05	7.494763e-01	6.429436e-01	2.675458e-01	2.664644e-01	2.161077e+00	
779	5.022400e-05	7.513390e-01	6.439231e-01	2.683648e-01	2.672833e-01	2.162086e+00	
780	5.042880e-05	7.550684e-01	6.458789e-01	2.700040e-01	2.689222e-01	2.164104e+00	
781	5.083840e-05	7.625438e-01	6.497779e-01	2.732864e-01	2.722040e-01	2.168137e+00	
782	5.102000e-05	7.658651e-01	6.515014e-01	2.747433e-01	2.736607e-01	2.169925e+00	
783	5.102100e-05	7.658834e-01	6.515109e-01	2.747514e-01	2.736687e-01	2.169934e+00	
784	5.102300e-05	7.659200e-01	6.515299e-01	2.747674e-01	2.736848e-01	2.169954e+00	
785	5.102700e-05	7.659932e-01	6.515677e-01	2.747994e-01	2.737168e-01	2.169993e+00	
786	5.103000e-05	7.660481e-01	6.515960e-01	2.748234e-01	2.737409e-01	2.170023e+00	
787	5.103080e-05	7.660627e-01	6.516036e-01	2.748298e-01	2.737473e-01	2.170031e+00	
788	5.103240e-05	7.660920e-01	6.516187e-01	2.748426e-01	2.737601e-01	2.170047e+00	
789	5.103560e-05	7.661506e-01	6.516489e-01	2.748681e-01	2.737856e-01	2.170078e+00	
790	5.104200e-05	7.662677e-01	6.517093e-01	2.749192e-01	2.738367e-01	2.170141e+00	
791	5.105480e-05	7.665020e-01	6.518301e-01	2.750214e-01	2.739389e-01	2.170267e+00	
792	5.108040e-05	7.669707e-01	6.520716e-01	2.752258e-01	2.741433e-01	2.170519e+00	
793	5.113160e-05	7.679083e-01	6.525545e-01	2.756347e-01	2.745521e-01	2.171022e+00	
794	5.123400e-05	7.697845e-01	6.535196e-01	2.764527e-01	2.753699e-01	2.172030e+00	
795	5.143880e-05	7.735409e-01	6.554470e-01	2.780896e-01	2.770065e-01	2.174043e+00	
796	5.184840e-05	7.810702e-01	6.592907e-01	2.813671e-01	2.802835e-01	2.178068e+00	
797	5.201000e-05	7.840467e-01	6.608033e-01	2.826615e-01	2.815776e-01	2.179655e+00	
798	5.201100e-05	7.840651e-01	6.608127e-01	2.826695e-01	2.815856e-01	2.179665e+00	
799	5.201300e-05	7.841020e-01	6.608314e-01	2.826855e-01	2.816017e-01	2.179685e+00	
800	5.201700e-05	7.841757e-01	6.608689e-01	2.827177e-01	2.816337e-01	2.179724e+00	
801	5.202000e-05	7.842310e-01	6.608971e-01	2.827418e-01	2.816578e-01	2.179753e+00	
802	5.202080e-05	7.842458e-01	6.609046e-01	2.827483e-01	2.816643e-01	2.179761e+00	
803	5.202240e-05	7.842752e-01	6.609196e-01	2.827611e-01	2.816771e-01	2.179777e+00	
804	5.202560e-05	7.843342e-01	6.609497e-01	2.827869e-01	2.817029e-01	2.179808e+00	
805	5.203200e-05	7.844522e-01	6.610098e-01	2.828385e-01	2.817544e-01	2.179871e+00	
806	5.204480e-05	7.846881e-01	6.611300e-01	2.829416e-01	2.818575e-01	2.179997e+00	
807	5.207040e-05	7.851601e-01	6.613705e-01	2.831478e-01	2.820637e-01	2.180248e+00	
808	5.212160e-05	7.861042e-01	6.618512e-01	2.835604e-01	2.824761e-01	2.180751e+00	
809	5.222400e-05	7.879936e-01	6.628120e-01	2.843856e-01	2.833013e-01	2.181756e+00	
810	5.242880e-05	7.917763e-01	6.647312e-01	2.860371e-01	2.849524e-01	2.183765e+00	
811	5.283840e-05	7.993580e-01	6.685601e-01	2.893433e-01	2.882581e-01	2.187782e+00	
812	5.302000e-05	8.027262e-01	6.702538e-01	2.908106e-01	2.897251e-01	2.189561e+00	
813	5.302100e-05	8.027448e-01	6.702631e-01	2.908187e-01	2.897332e-01	2.189571e+00	
814	5.302300e-05	8.027819e-01	6.702817e-01	2.908348e-01	2.897494e-01	2.189591e+00	
815	5.302700e-05	8.028562e-01	6.703189e-01	2.908671e-01	2.897817e-01	2.189630e+00	
816	5.303000e-05	8.029119e-01	6.703467e-01	2.908912e-01	2.898059e-01	2.189659e+00	
817	5.303080e-05	8.029267e-01	6.703542e-01	2.908976e-01	2.898123e-01	2.189667e+00	
818	5.303240e-05	8.029564e-01	6.703690e-01	2.909105e-01	2.898252e-01	2.189683e+00	
819	5.303560e-05	8.030158e-01	6.703987e-01	2.909362e-01	2.898509e-01	2.189714e+00	
820	5.304200e-05	8.031346e-01	6.704581e-01	2.909877e-01	2.899024e-01	2.189777e+00	
821	5.305480e-05	8.033722e-01	6.705768e-01	2.910906e-01	2.900053e-01	2.189902e+00	
822	5.308040e-05	8.038475e-01	6.708142e-01	2.912965e-01	2.902111e-01	2.190153e+00	
823	5.313160e-05	8.047983e-01	6.712889e-01	2.917082e-01	2.906228e-01	2.190654e+00	
824	5.323400e-05	8.067009e-01	6.722378e-01	2.925319e-01	2.914463e-01	2.191657e+00	
825	5.343880e-05	8.105102e-01	6.741334e-01	2.941801e-01	2.930942e-01	2.193662e+00	
826	5.384840e-05	8.181448e-01	6.779163e-01	2.974795e-01	2.963931e-01	2.197670e+00	
827	5.401000e-05	8.211628e-01	6.794059e-01	2.987824e-01	2.976958e-01	2.199250e+00	
828	5.401100e-05	8.211815e-01	6.794152e-01	2.987905e-01	2.977038e-01	2.199260e+00	
829	5.401300e-05	8.212188e-01	6.794336e-01	2.988066e-01	2.977200e-01	2.199279e+00	
830	5.401700e-05	8.212936e-01	6.794705e-01	2.988390e-01	2.977522e-01	2.199318e+00	
831	5.402000e-05	8.213496e-01	6.794983e-01	2.988633e-01	2.977765e-01	2.199348e+00	
832	5.402080e-05	8.213646e-01	6.795057e-01	2.988698e-01	2.977829e-01	2.199356e+00	
833	5.402240e-05	8.213945e-01	6.795205e-01	2.988827e-01	2.977959e-01	2.199371e+00	
834	5.402560e-05	8.214543e-01	6.795501e-01	2.989087e-01	2.978218e-01	2.199403e+00	
835	5.403200e-05	8.215739e-01	6.796093e-01	2.989606e-01	2.978737e-01	2.199465e+00	
836	5.404480e-05	8.218131e-01	6.797278e-01	2.990644e-01	2.979774e-01	2.199590e+00	
837	5.407040e-05	8.222916e-01	6.799646e-01	2.992719e-01	2.981850e-01	2.199840e+00	
838	5.412160e-05	8.232489e-01	6.804382e-01	2.996871e-01	2.986001e-01	2.200341e+00	
839	5.422400e-05	8.251645e-01	6.813850e-01	3.005176e-01	2.994305e-01	2.201342e+00	
840	5.442880e-05	8.289995e-01	6.832767e-01	3.021795e-01	3.010920e-01	2.203342e+00	
841	5.483840e-05	8.366856e-01	6.870528e-01	3.055061e-01	3.044180e-01	2.207341e+00	
842	5.502000e-05	8.401001e-01	6.887241e-01	3.069822e-01	3.058939e-01	2.209113e+00	
843	5.502100e-05	8.401189e-01	6.887333e-01	3.069903e-01	3.059020e-01	2.209122e+00	
844	5.502300e-05	8.401565e-01	6.887517e-01	3.070066e-01	3.059183e-01	2.209142e+00	
845	5.502700e-05	8.402318e-01	6.887884e-01	3.070390e-01	3.059508e-01	2.209181e+00	
846	5.503000e-05	8.402882e-01	6.888159e-01	3.070633e-01	3.059751e-01	2.209210e+00	
847	5.503080e-05	8.403033e-01	6.888232e-01	3.070698e-01	3.059816e-01	2.209218e+00	
848	5.503240e-05	8.403334e-01	6.888379e-01	3.070827e-01	3.059946e-01	2.209234e+00	
849	5.503560e-05	8.403936e-01	6.888672e-01	3.071086e-01	3.060205e-01	2.209265e+00	
850	5.504200e-05	8.405140e-01	6.889258e-01	3.071603e-01	3.060722e-01	2.209327e+00	
851	5.505480e-05	8.407549e-01	6.890429e-01	3.072639e-01	3.061757e-01	2.209452e+00	
852	5.508040e-05	8.412367e-01	6.892773e-01	3.074709e-01	3.063828e-01	2.209702e+00	
853	5.513160e-05	8.422005e-01	6.897458e-01	3.078851e-01	3.067969e-01	2.210201e+00	
854	5.523400e-05	8.441291e-01	6.906825e-01	3.087137e-01	3.076253e-01	2.211199e+00	
855	5.543880e-05	8.479902e-01	6.925543e-01	3.103715e-01	3.092829e-01	2.213196e+00	
856	5.584840e-05	8.557283e-01	6.962918e-01	3.136899e-01	3.126006e-01	2.217185e+00	
857	5.601000e-05	8.587870e-01	6.977642e-01	3.150001e-01	3.139106e-01	2.218758e+00	
858	5.601100e-05	8.588060e-01	6.977733e-01	3.150082e-01	3.139187e-01	2.218768e+00	
859	5.601300e-05	8.588438e-01	6.977915e-01	3.150244e-01	3.139349e-01	2.218787e+00	
860	5.601700e-05	8.589196e-01	6.978280e-01	3.150569e-01	3.139674e-01	2.218826e+00	
861	5.602000e-05	8.589764e-01	6.978554e-01	3.150814e-01	3.139917e-01	2.218855e+00	
862	5.602080e-05	8.589916e-01	6.978628e-01	3.150879e-01	3.139982e-01	2.218863e+00	
863	5.602240e-05	8.590219e-01	6.978774e-01	3.151009e-01	3.140113e-01	2.218879e+00	
864	5.602560e-05	8.590825e-01	6.979067e-01	3.151270e-01	3.140373e-01	2.218910e+00	
865	5.603200e-05	8.592037e-01	6.979652e-01	3.151792e-01	3.140895e-01	2.218972e+00	
866	5.604480e-05	8.594461e-01	6.980823e-01	3.152835e-01	3.141938e-01	2.219097e+00	
867	5.607040e-05	8.599311e-01	6.983165e-01	3.154922e-01	3.144025e-01	2.219346e+00	
868	5.612160e-05	8.609013e-01	6.987848e-01	3.159097e-01	3.148199e-01	2.219844e+00	
869	5.622400e-05	8.628425e-01	6.997210e-01	3.167448e-01	3.156548e-01	2.220840e+00	
870	5.642880e-05	8.667291e-01	7.015921e-01	3.184156e-01	3.173254e-01	2.222832e+00	
871	5.683840e-05	8.745177e-01	7.053288e-01	3.217598e-01	3.206690e-01	2.226812e+00	
872	5.702000e-05	8.779775e-01	7.069833e-01	3.232436e-01	3.221525e-01	2.228576e+00	
873	5.702100e-05	8.779966e-01	7.069924e-01	3.232517e-01	3.221606e-01	2.228586e+00	
874	5.702300e-05	8.780347e-01	7.070106e-01	3.232681e-01	3.221770e-01	2.228605e+00	
875	5.702700e-05	8.781110e-01	7.070470e-01	3.233007e-01	3.222096e-01	2.228644e+00	
876	5.703000e-05	8.781681e-01	7.070742e-01	3.233251e-01	3.222341e-01	2.228673e+00	
877	5.703080e-05	8.781834e-01	7.070814e-01	3.233316e-01	3.222406e-01	2.228681e+00	
878	5.703240e-05	8.782139e-01	7.070959e-01	3.233446e-01	3.222536e-01	2.228696e+00	
879	5.703560e-05	8.782749e-01	7.071249e-01	3.233706e-01	3.222797e-01	2.228727e+00	
880	5.704200e-05	8.783969e-01	7.071830e-01	3.234226e-01	3.223317e-01	2.228789e+00	
881	5.705480e-05	8.786410e-01	7.072990e-01	3.235267e-01	3.224358e-01	2.228914e+00	
882	5.708040e-05	8.791291e-01	7.075310e-01	3.237348e-01	3.226439e-01	2.229162e+00	
883	5.713160e-05	8.801057e-01	7.079949e-01	3.241512e-01	3.230601e-01	2.229659e+00	
884	5.723400e-05	8.820598e-01	7.089225e-01	3.249840e-01	3.238928e-01	2.230653e+00	
885	5.743880e-05	8.859720e-01	7.107765e-01	3.266502e-01	3.255587e-01	2.232640e+00	
886	5.784840e-05	8.938117e-01	7.144798e-01	3.299849e-01	3.288929e-01	2.236611e+00	
887	5.801000e-05	8.969104e-01	7.159393e-01	3.313015e-01	3.302092e-01	2.238176e+00	
[...]
4179	2.770356e-04	5.851411e+00	2.503835e+00	2.119153e+00	2.117776e+00	3.276251e+00	
4180	2.770420e-04	5.851515e+00	2.503887e+00	2.119204e+00	2.117828e+00	3.276240e+00	
4181	2.770548e-04	5.851722e+00	2.503990e+00	2.119308e+00	2.117931e+00	3.276218e+00	
4182	2.770804e-04	5.852137e+00	2.504196e+00	2.119514e+00	2.118138e+00	3.276173e+00	
4183	2.771316e-04	5.852966e+00	2.504609e+00	2.119928e+00	2.118551e+00	3.276083e+00	
4184	2.772340e-04	5.854624e+00	2.505434e+00	2.120755e+00	2.119378e+00	3.275902e+00	
4185	2.774388e-04	5.857934e+00	2.507084e+00	2.122408e+00	2.121031e+00	3.275539e+00	
4186	2.778484e-04	5.864537e+00	2.510385e+00	2.125715e+00	2.124337e+00	3.274805e+00	
4187	2.780100e-04	5.867136e+00	2.511688e+00	2.127019e+00	2.125642e+00	3.274513e+00	
4188	2.780110e-04	5.867152e+00	2.511696e+00	2.127027e+00	2.125650e+00	3.274511e+00	
4189	2.780130e-04	5.867184e+00	2.511712e+00	2.127043e+00	2.125666e+00	3.274508e+00	
4190	2.780170e-04	5.867249e+00	2.511744e+00	2.127076e+00	2.125698e+00	3.274500e+00	
4191	2.780200e-04	5.867297e+00	2.511768e+00	2.127100e+00	2.125722e+00	3.274495e+00	
4192	2.780208e-04	5.867310e+00	2.511775e+00	2.127107e+00	2.125729e+00	3.274493e+00	
4193	2.780224e-04	5.867336e+00	2.511788e+00	2.127120e+00	2.125742e+00	3.274490e+00	
4194	2.780256e-04	5.867387e+00	2.511814e+00	2.127145e+00	2.125768e+00	3.274485e+00	
4195	2.780320e-04	5.867490e+00	2.511866e+00	2.127197e+00	2.125820e+00	3.274473e+00	
4196	2.780448e-04	5.867695e+00	2.511969e+00	2.127301e+00	2.125923e+00	3.274450e+00	
4197	2.780704e-04	5.868107e+00	2.512177e+00	2.127509e+00	2.126131e+00	3.274403e+00	
4198	2.781216e-04	5.868929e+00	2.512591e+00	2.127925e+00	2.126547e+00	3.274310e+00	
4199	2.782240e-04	5.870572e+00	2.513421e+00	2.128756e+00	2.127377e+00	3.274123e+00	
4200	2.784288e-04	5.873854e+00	2.515080e+00	2.130417e+00	2.129039e+00	3.273747e+00	
4201	2.788384e-04	5.880401e+00	2.518398e+00	2.133741e+00	2.132362e+00	3.272987e+00	
4202	2.790200e-04	5.883296e+00	2.519869e+00	2.135215e+00	2.133836e+00	3.272647e+00	
4203	2.790201e-04	5.883298e+00	2.519870e+00	2.135216e+00	2.133837e+00	3.272647e+00	
4204	2.790204e-04	5.883302e+00	2.519872e+00	2.135218e+00	2.133839e+00	3.272646e+00	
4205	2.790209e-04	5.883310e+00	2.519876e+00	2.135222e+00	2.133843e+00	3.272645e+00	
4206	2.790219e-04	5.883325e+00	2.519884e+00	2.135230e+00	2.133851e+00	3.272643e+00	
4207	2.790239e-04	5.883357e+00	2.519900e+00	2.135246e+00	2.133867e+00	3.272640e+00	
4208	2.790279e-04	5.883421e+00	2.519933e+00	2.135279e+00	2.133900e+00	3.272632e+00	
4209	2.790300e-04	5.883455e+00	2.519950e+00	2.135296e+00	2.133917e+00	3.272628e+00	
4210	2.790308e-04	5.883468e+00	2.519956e+00	2.135302e+00	2.133923e+00	3.272627e+00	
4211	2.790324e-04	5.883493e+00	2.519969e+00	2.135315e+00	2.133936e+00	3.272624e+00	
4212	2.790356e-04	5.883544e+00	2.519995e+00	2.135341e+00	2.133962e+00	3.272618e+00	
4213	2.790420e-04	5.883646e+00	2.520047e+00	2.135393e+00	2.134014e+00	3.272606e+00	
4214	2.790548e-04	5.883850e+00	2.520150e+00	2.135496e+00	2.134117e+00	3.272582e+00	
4215	2.790804e-04	5.884257e+00	2.520356e+00	2.135703e+00	2.134324e+00	3.272533e+00	
4216	2.791316e-04	5.885072e+00	2.520769e+00	2.136116e+00	2.134737e+00	3.272437e+00	
4217	2.792340e-04	5.886701e+00	2.521594e+00	2.136942e+00	2.135563e+00	3.272243e+00	
4218	2.794388e-04	5.889954e+00	2.523244e+00	2.138596e+00	2.137216e+00	3.271854e+00	
4219	2.798484e-04	5.896442e+00	2.526544e+00	2.141902e+00	2.140522e+00	3.271068e+00	
4220	2.800100e-04	5.898996e+00	2.527846e+00	2.143206e+00	2.141826e+00	3.270755e+00	
4221	2.800110e-04	5.899011e+00	2.527854e+00	2.143214e+00	2.141834e+00	3.270753e+00	
4222	2.800130e-04	5.899043e+00	2.527871e+00	2.143230e+00	2.141850e+00	3.270749e+00	
4223	2.800170e-04	5.899106e+00	2.527903e+00	2.143263e+00	2.141882e+00	3.270741e+00	
4224	2.800200e-04	5.899154e+00	2.527927e+00	2.143287e+00	2.141907e+00	3.270735e+00	
4225	2.800208e-04	5.899166e+00	2.527934e+00	2.143293e+00	2.141913e+00	3.270734e+00	
4226	2.800224e-04	5.899191e+00	2.527947e+00	2.143306e+00	2.141926e+00	3.270730e+00	
4227	2.800256e-04	5.899242e+00	2.527972e+00	2.143332e+00	2.141952e+00	3.270724e+00	
4228	2.800320e-04	5.899343e+00	2.528024e+00	2.143384e+00	2.142004e+00	3.270712e+00	
4229	2.800448e-04	5.899545e+00	2.528128e+00	2.143488e+00	2.142108e+00	3.270687e+00	
4230	2.800704e-04	5.899949e+00	2.528335e+00	2.143696e+00	2.142316e+00	3.270637e+00	
4231	2.801216e-04	5.900757e+00	2.528750e+00	2.144111e+00	2.142731e+00	3.270537e+00	
4232	2.802240e-04	5.902371e+00	2.529579e+00	2.144942e+00	2.143562e+00	3.270337e+00	
4233	2.804288e-04	5.905596e+00	2.531238e+00	2.146604e+00	2.145223e+00	3.269935e+00	
4234	2.808384e-04	5.912026e+00	2.534556e+00	2.149927e+00	2.148546e+00	3.269123e+00	
4235	2.810200e-04	5.914870e+00	2.536027e+00	2.151401e+00	2.150019e+00	3.268759e+00	
4236	2.810210e-04	5.914885e+00	2.536035e+00	2.151409e+00	2.150027e+00	3.268757e+00	
4237	2.810230e-04	5.914917e+00	2.536051e+00	2.151425e+00	2.150043e+00	3.268753e+00	
4238	2.810270e-04	5.914979e+00	2.536083e+00	2.151457e+00	2.150076e+00	3.268745e+00	
4239	2.810300e-04	5.915026e+00	2.536107e+00	2.151481e+00	2.150100e+00	3.268739e+00	
4240	2.810308e-04	5.915039e+00	2.536114e+00	2.151488e+00	2.150106e+00	3.268738e+00	
4241	2.810324e-04	5.915064e+00	2.536127e+00	2.151501e+00	2.150119e+00	3.268734e+00	
4242	2.810356e-04	5.915114e+00	2.536152e+00	2.151527e+00	2.150145e+00	3.268728e+00	
4243	2.810420e-04	5.915214e+00	2.536204e+00	2.151578e+00	2.150197e+00	3.268715e+00	
4244	2.810548e-04	5.915414e+00	2.536307e+00	2.151682e+00	2.150300e+00	3.268689e+00	
4245	2.810804e-04	5.915815e+00	2.536513e+00	2.151888e+00	2.150507e+00	3.268638e+00	
4246	2.811316e-04	5.916615e+00	2.536926e+00	2.152301e+00	2.150920e+00	3.268535e+00	
4247	2.812340e-04	5.918215e+00	2.537751e+00	2.153128e+00	2.151746e+00	3.268328e+00	
4248	2.814388e-04	5.921410e+00	2.539401e+00	2.154781e+00	2.153399e+00	3.267913e+00	
4249	2.818484e-04	5.927781e+00	2.542701e+00	2.158086e+00	2.156704e+00	3.267074e+00	
4250	2.820100e-04	5.930289e+00	2.544002e+00	2.159390e+00	2.158008e+00	3.266740e+00	
4251	2.820110e-04	5.930304e+00	2.544011e+00	2.159399e+00	2.158016e+00	3.266738e+00	
4252	2.820130e-04	5.930335e+00	2.544027e+00	2.159415e+00	2.158032e+00	3.266734e+00	
4253	2.820170e-04	5.930397e+00	2.544059e+00	2.159447e+00	2.158064e+00	3.266726e+00	
4254	2.820200e-04	5.930444e+00	2.544083e+00	2.159471e+00	2.158089e+00	3.266719e+00	
4255	2.820208e-04	5.930456e+00	2.544090e+00	2.159478e+00	2.158095e+00	3.266718e+00	
4256	2.820224e-04	5.930481e+00	2.544103e+00	2.159491e+00	2.158108e+00	3.266714e+00	
4257	2.820256e-04	5.930530e+00	2.544129e+00	2.159517e+00	2.158134e+00	3.266708e+00	
4258	2.820320e-04	5.930630e+00	2.544180e+00	2.159569e+00	2.158186e+00	3.266695e+00	
4259	2.820448e-04	5.930828e+00	2.544284e+00	2.159673e+00	2.158290e+00	3.266668e+00	
4260	2.820704e-04	5.931225e+00	2.544491e+00	2.159880e+00	2.158497e+00	3.266615e+00	
4261	2.821216e-04	5.932018e+00	2.544906e+00	2.160296e+00	2.158913e+00	3.266509e+00	
4262	2.822240e-04	5.933603e+00	2.545735e+00	2.161126e+00	2.159743e+00	3.266295e+00	
4263	2.824288e-04	5.936769e+00	2.547394e+00	2.162788e+00	2.161404e+00	3.265867e+00	
4264	2.828384e-04	5.943083e+00	2.550711e+00	2.166111e+00	2.164727e+00	3.265003e+00	
4265	2.830200e-04	5.945874e+00	2.552181e+00	2.167584e+00	2.166199e+00	3.264616e+00	
4266	2.830210e-04	5.945890e+00	2.552189e+00	2.167592e+00	2.166208e+00	3.264614e+00	
4267	2.830230e-04	5.945920e+00	2.552206e+00	2.167608e+00	2.166224e+00	3.264609e+00	
4268	2.830270e-04	5.945982e+00	2.552238e+00	2.167640e+00	2.166256e+00	3.264601e+00	
4269	2.830300e-04	5.946028e+00	2.552262e+00	2.167665e+00	2.166280e+00	3.264594e+00	
4270	2.830308e-04	5.946040e+00	2.552269e+00	2.167671e+00	2.166287e+00	3.264593e+00	
4271	2.830324e-04	5.946065e+00	2.552281e+00	2.167684e+00	2.166300e+00	3.264589e+00	
4272	2.830356e-04	5.946114e+00	2.552307e+00	2.167710e+00	2.166326e+00	3.264582e+00	
4273	2.830420e-04	5.946212e+00	2.552359e+00	2.167761e+00	2.166377e+00	3.264569e+00	
4274	2.830548e-04	5.946409e+00	2.552462e+00	2.167865e+00	2.166481e+00	3.264541e+00	
4275	2.830804e-04	5.946802e+00	2.552668e+00	2.168071e+00	2.166687e+00	3.264487e+00	
4276	2.831316e-04	5.947587e+00	2.553081e+00	2.168484e+00	2.167100e+00	3.264377e+00	
4277	2.832340e-04	5.949158e+00	2.553905e+00	2.169311e+00	2.167926e+00	3.264157e+00	
4278	2.834388e-04	5.952294e+00	2.555555e+00	2.170963e+00	2.169579e+00	3.263716e+00	
4279	2.838484e-04	5.958548e+00	2.558854e+00	2.174268e+00	2.172883e+00	3.262825e+00	
4280	2.840100e-04	5.961008e+00	2.560156e+00	2.175572e+00	2.174187e+00	3.262470e+00	
4281	2.840110e-04	5.961024e+00	2.560164e+00	2.175580e+00	2.174195e+00	3.262468e+00	
4282	2.840130e-04	5.961054e+00	2.560180e+00	2.175596e+00	2.174211e+00	3.262464e+00	
4283	2.840170e-04	5.961115e+00	2.560212e+00	2.175629e+00	2.174243e+00	3.262455e+00	
4284	2.840200e-04	5.961161e+00	2.560237e+00	2.175653e+00	2.174268e+00	3.262448e+00	
4285	2.840208e-04	5.961173e+00	2.560243e+00	2.175660e+00	2.174274e+00	3.262447e+00	
4286	2.840224e-04	5.961197e+00	2.560256e+00	2.175673e+00	2.174287e+00	3.262443e+00	
4287	2.840256e-04	5.961246e+00	2.560282e+00	2.175699e+00	2.174313e+00	3.262436e+00	
4288	2.840320e-04	5.961343e+00	2.560334e+00	2.175751e+00	2.174365e+00	3.262422e+00	
4289	2.840448e-04	5.961538e+00	2.560438e+00	2.175854e+00	2.174469e+00	3.262394e+00	
4290	2.840704e-04	5.961927e+00	2.560645e+00	2.176062e+00	2.174676e+00	3.262338e+00	
4291	2.841216e-04	5.962706e+00	2.561059e+00	2.176477e+00	2.175092e+00	3.262225e+00	
4292	2.842240e-04	5.964261e+00	2.561889e+00	2.177308e+00	2.175922e+00	3.261998e+00	
4293	2.844288e-04	5.967368e+00	2.563547e+00	2.178969e+00	2.177583e+00	3.261544e+00	
4294	2.848384e-04	5.973563e+00	2.566863e+00	2.182291e+00	2.180905e+00	3.260627e+00	
4295	2.850200e-04	5.976302e+00	2.568333e+00	2.183764e+00	2.182377e+00	3.260217e+00	
4296	2.850210e-04	5.976317e+00	2.568342e+00	2.183772e+00	2.182385e+00	3.260215e+00	
4297	2.850230e-04	5.976347e+00	2.568358e+00	2.183788e+00	2.182402e+00	3.260211e+00	
4298	2.850270e-04	5.976408e+00	2.568390e+00	2.183821e+00	2.182434e+00	3.260202e+00	
4299	2.850300e-04	5.976453e+00	2.568414e+00	2.183845e+00	2.182458e+00	3.260195e+00	
4300	2.850308e-04	5.976465e+00	2.568421e+00	2.183852e+00	2.182465e+00	3.260193e+00	
4301	2.850324e-04	5.976489e+00	2.568434e+00	2.183864e+00	2.182478e+00	3.260189e+00	
4302	2.850356e-04	5.976537e+00	2.568459e+00	2.183890e+00	2.182504e+00	3.260182e+00	
4303	2.850420e-04	5.976634e+00	2.568511e+00	2.183942e+00	2.182555e+00	3.260168e+00	
4304	2.850548e-04	5.976826e+00	2.568614e+00	2.184045e+00	2.182659e+00	3.260139e+00	
4305	2.850804e-04	5.977212e+00	2.568820e+00	2.184252e+00	2.182865e+00	3.260081e+00	
4306	2.851316e-04	5.977983e+00	2.569233e+00	2.184665e+00	2.183278e+00	3.259964e+00	
4307	2.852340e-04	5.979523e+00	2.570057e+00	2.185491e+00	2.184104e+00	3.259732e+00	
4308	2.854388e-04	5.982600e+00	2.571707e+00	2.187143e+00	2.185756e+00	3.259264e+00	
4309	2.858484e-04	5.988735e+00	2.575005e+00	2.190448e+00	2.189060e+00	3.258321e+00	
4310	2.860100e-04	5.991148e+00	2.576307e+00	2.191751e+00	2.190364e+00	3.257946e+00	
4311	2.860110e-04	5.991163e+00	2.576315e+00	2.191760e+00	2.190372e+00	3.257944e+00	
4312	2.860130e-04	5.991193e+00	2.576331e+00	2.191776e+00	2.190388e+00	3.257939e+00	
4313	2.860170e-04	5.991253e+00	2.576363e+00	2.191808e+00	2.190420e+00	3.257930e+00	
4314	2.860200e-04	5.991298e+00	2.576388e+00	2.191832e+00	2.190444e+00	3.257923e+00	
4315	2.860208e-04	5.991310e+00	2.576394e+00	2.191839e+00	2.190451e+00	3.257921e+00	
4316	2.860224e-04	5.991334e+00	2.576407e+00	2.191852e+00	2.190464e+00	3.257917e+00	
4317	2.860256e-04	5.991381e+00	2.576433e+00	2.191878e+00	2.190490e+00	3.257910e+00	
4318	2.860320e-04	5.991477e+00	2.576485e+00	2.191930e+00	2.190542e+00	3.257895e+00	
4319	2.860448e-04	5.991668e+00	2.576588e+00	2.192034e+00	2.190645e+00	3.257865e+00	
4320	2.860704e-04	5.992050e+00	2.576796e+00	2.192241e+00	2.190853e+00	3.257805e+00	
4321	2.861216e-04	5.992813e+00	2.577210e+00	2.192656e+00	2.191268e+00	3.257686e+00	
4322	2.862240e-04	5.994339e+00	2.578039e+00	2.193487e+00	2.192098e+00	3.257447e+00	
4323	2.864288e-04	5.997386e+00	2.579697e+00	2.195148e+00	2.193759e+00	3.256967e+00	
4324	2.868384e-04	6.003461e+00	2.583013e+00	2.198469e+00	2.197080e+00	3.255998e+00	
4325	2.870200e-04	6.006147e+00	2.584483e+00	2.199942e+00	2.198553e+00	3.255565e+00	
4326	2.870210e-04	6.006162e+00	2.584491e+00	2.199950e+00	2.198561e+00	3.255562e+00	
4327	2.870230e-04	6.006191e+00	2.584507e+00	2.199966e+00	2.198577e+00	3.255558e+00	
4328	2.870270e-04	6.006250e+00	2.584540e+00	2.199999e+00	2.198609e+00	3.255548e+00	
4329	2.870300e-04	6.006295e+00	2.584564e+00	2.200023e+00	2.198634e+00	3.255541e+00	
4330	2.870308e-04	6.006306e+00	2.584570e+00	2.200029e+00	2.198640e+00	3.255539e+00	
4331	2.870324e-04	6.006330e+00	2.584583e+00	2.200042e+00	2.198653e+00	3.255535e+00	
4332	2.870356e-04	6.006377e+00	2.584609e+00	2.200068e+00	2.198679e+00	3.255527e+00	
4333	2.870420e-04	6.006472e+00	2.584660e+00	2.200120e+00	2.198731e+00	3.255512e+00	
4334	2.870548e-04	6.006661e+00	2.584763e+00	2.200223e+00	2.198834e+00	3.255482e+00	
4335	2.870804e-04	6.007039e+00	2.584970e+00	2.200430e+00	2.199040e+00	3.255420e+00	
4336	2.871316e-04	6.007795e+00	2.585382e+00	2.200843e+00	2.199453e+00	3.255298e+00	
4337	2.872340e-04	6.009305e+00	2.586206e+00	2.201669e+00	2.200279e+00	3.255052e+00	
4338	2.874388e-04	6.012322e+00	2.587856e+00	2.203321e+00	2.201931e+00	3.254558e+00	
4339	2.878484e-04	6.018336e+00	2.591154e+00	2.206625e+00	2.205234e+00	3.253563e+00	
4340	2.880100e-04	6.020702e+00	2.592455e+00	2.207928e+00	2.206538e+00	3.253168e+00	
4341	2.880110e-04	6.020717e+00	2.592463e+00	2.207936e+00	2.206546e+00	3.253165e+00	
4342	2.880130e-04	6.020746e+00	2.592479e+00	2.207952e+00	2.206562e+00	3.253160e+00	
4343	2.880170e-04	6.020805e+00	2.592511e+00	2.207985e+00	2.206594e+00	3.253151e+00	
4344	2.880200e-04	6.020848e+00	2.592536e+00	2.208009e+00	2.206618e+00	3.253143e+00	
4345	2.880208e-04	6.020860e+00	2.592542e+00	2.208016e+00	2.206625e+00	3.253141e+00	
4346	2.880224e-04	6.020884e+00	2.592555e+00	2.208028e+00	2.206638e+00	3.253137e+00	
4347	2.880256e-04	6.020930e+00	2.592581e+00	2.208054e+00	2.206664e+00	3.253130e+00	
4348	2.880320e-04	6.021024e+00	2.592633e+00	2.208106e+00	2.206716e+00	3.253114e+00	
4349	2.880448e-04	6.021211e+00	2.592736e+00	2.208210e+00	2.206819e+00	3.253082e+00	
4350	2.880704e-04	6.021586e+00	2.592944e+00	2.208418e+00	2.207027e+00	3.253020e+00	
4351	2.881216e-04	6.022334e+00	2.593358e+00	2.208833e+00	2.207442e+00	3.252894e+00	
4352	2.882240e-04	6.023829e+00	2.594187e+00	2.209663e+00	2.208272e+00	3.252642e+00	
4353	2.884288e-04	6.026816e+00	2.595845e+00	2.211324e+00	2.209933e+00	3.252135e+00	
4354	2.888384e-04	6.032770e+00	2.599160e+00	2.214645e+00	2.213253e+00	3.251114e+00	
4355	2.890200e-04	6.035402e+00	2.600630e+00	2.216117e+00	2.214726e+00	3.250659e+00	
4356	2.890210e-04	6.035416e+00	2.600638e+00	2.216126e+00	2.214734e+00	3.250656e+00	
4357	2.890230e-04	6.035445e+00	2.600654e+00	2.216142e+00	2.214750e+00	3.250651e+00	
4358	2.890270e-04	6.035503e+00	2.600686e+00	2.216174e+00	2.214782e+00	3.250641e+00	
4359	2.890300e-04	6.035547e+00	2.600711e+00	2.216198e+00	2.214806e+00	3.250633e+00	
4360	2.890308e-04	6.035558e+00	2.600717e+00	2.216205e+00	2.214813e+00	3.250631e+00	
4361	2.890324e-04	6.035581e+00	2.600730e+00	2.216218e+00	2.214826e+00	3.250627e+00	
4362	2.890356e-04	6.035628e+00	2.600756e+00	2.216243e+00	2.214852e+00	3.250619e+00	
4363	2.890420e-04	6.035720e+00	2.600807e+00	2.216295e+00	2.214903e+00	3.250603e+00	
4364	2.890548e-04	6.035906e+00	2.600910e+00	2.216398e+00	2.215007e+00	3.250571e+00	
4365	2.890804e-04	6.036276e+00	2.601116e+00	2.216605e+00	2.215213e+00	3.250506e+00	
4366	2.891316e-04	6.037017e+00	2.601529e+00	2.217018e+00	2.215626e+00	3.250377e+00	
4367	2.892340e-04	6.038497e+00	2.602353e+00	2.217844e+00	2.216452e+00	3.250119e+00	
4368	2.894388e-04	6.041453e+00	2.604002e+00	2.219495e+00	2.218103e+00	3.249599e+00	
4369	2.898484e-04	6.047345e+00	2.607299e+00	2.222799e+00	2.221406e+00	3.248552e+00	
4370	2.900100e-04	6.049663e+00	2.608600e+00	2.224102e+00	2.222709e+00	3.248136e+00	
4371	2.900110e-04	6.049677e+00	2.608609e+00	2.224110e+00	2.222717e+00	3.248134e+00	
4372	2.900130e-04	6.049706e+00	2.608625e+00	2.224126e+00	2.222733e+00	3.248129e+00	
4373	2.900170e-04	6.049763e+00	2.608657e+00	2.224159e+00	2.222766e+00	3.248118e+00	
4374	2.900200e-04	6.049806e+00	2.608681e+00	2.224183e+00	2.222790e+00	3.248111e+00	
4375	2.900208e-04	6.049818e+00	2.608688e+00	2.224190e+00	2.222796e+00	3.248109e+00	
4376	2.900224e-04	6.049841e+00	2.608701e+00	2.224203e+00	2.222809e+00	3.248104e+00	
4377	2.900256e-04	6.049887e+00	2.608727e+00	2.224228e+00	2.222835e+00	3.248096e+00	
4378	2.900320e-04	6.049978e+00	2.608778e+00	2.224280e+00	2.222887e+00	3.248080e+00	
4379	2.900448e-04	6.050162e+00	2.608882e+00	2.224384e+00	2.222991e+00	3.248047e+00	
4380	2.900704e-04	6.050528e+00	2.609089e+00	2.224592e+00	2.223198e+00	3.247981e+00	
4381	2.901216e-04	6.051262e+00	2.609503e+00	2.225007e+00	2.223613e+00	3.247848e+00	
4382	2.902240e-04	6.052727e+00	2.610332e+00	2.225837e+00	2.224444e+00	3.247583e+00	
4383	2.904288e-04	6.055652e+00	2.611990e+00	2.227497e+00	2.226104e+00	3.247051e+00	
4384	2.908384e-04	6.061484e+00	2.615304e+00	2.230818e+00	2.229424e+00	3.245978e+00	
4385	2.910200e-04	6.064061e+00	2.616774e+00	2.232290e+00	2.230896e+00	3.245500e+00	
4386	2.910210e-04	6.064075e+00	2.616782e+00	2.232298e+00	2.230904e+00	3.245497e+00	
4387	2.910230e-04	6.064104e+00	2.616798e+00	2.232314e+00	2.230920e+00	3.245492e+00	
4388	2.910270e-04	6.064160e+00	2.616831e+00	2.232347e+00	2.230952e+00	3.245481e+00	
4389	2.910300e-04	6.064203e+00	2.616855e+00	2.232371e+00	2.230977e+00	3.245473e+00	
4390	2.910308e-04	6.064214e+00	2.616861e+00	2.232377e+00	2.230983e+00	3.245471e+00	
4391	2.910324e-04	6.064237e+00	2.616874e+00	2.232390e+00	2.230996e+00	3.245467e+00	
4392	2.910356e-04	6.064282e+00	2.616900e+00	2.232416e+00	2.231022e+00	3.245458e+00	
4393	2.910420e-04	6.064373e+00	2.616951e+00	2.232468e+00	2.231073e+00	3.245441e+00	
4394	2.910548e-04	6.064554e+00	2.617054e+00	2.232571e+00	2.231177e+00	3.245408e+00	
4395	2.910804e-04	6.064917e+00	2.617260e+00	2.232777e+00	2.231383e+00	3.245340e+00	
4396	2.911316e-04	6.065643e+00	2.617673e+00	2.233190e+00	2.231796e+00	3.245204e+00	
4397	2.912340e-04	6.067092e+00	2.618497e+00	2.234016e+00	2.232622e+00	3.244933e+00	
4398	2.914388e-04	6.069986e+00	2.620145e+00	2.235668e+00	2.234273e+00	3.244387e+00	
4399	2.918484e-04	6.075756e+00	2.623443e+00	2.238971e+00	2.237575e+00	3.243289e+00	
4400	2.920100e-04	6.078025e+00	2.624743e+00	2.240274e+00	2.238878e+00	3.242853e+00	
4401	2.920110e-04	6.078039e+00	2.624751e+00	2.240282e+00	2.238886e+00	3.242850e+00	
4402	2.920130e-04	6.078067e+00	2.624768e+00	2.240298e+00	2.238902e+00	3.242845e+00	
4403	2.920170e-04	6.078123e+00	2.624800e+00	2.240330e+00	2.238935e+00	3.242834e+00	
4404	2.920200e-04	6.078165e+00	2.624824e+00	2.240355e+00	2.238959e+00	3.242826e+00	
4405	2.920208e-04	6.078176e+00	2.624831e+00	2.240361e+00	2.238965e+00	3.242823e+00	
4406	2.920210e-04	6.078179e+00	2.624832e+00	2.240363e+00	2.238967e+00	3.242823e+00	
4407	2.920210e-04	6.078179e+00	2.624832e+00	2.240363e+00	2.238967e+00	3.242823e+00	
4408	2.920210e-04	6.078179e+00	2.624832e+00	2.240363e+00	2.238967e+00	3.242823e+00	
4409	2.920210e-04	6.078180e+00	2.624833e+00	2.240363e+00	2.238967e+00	3.242823e+00	
4410	2.920210e-04	6.078180e+00	2.624833e+00	2.240363e+00	2.238967e+00	3.242823e+00	
4411	2.920211e-04	6.076324e+00	2.626234e+00	2.240363e+00	2.240367e+00	3.242823e+00	

elapsed time since last call: 0.703 seconds.

Total elapsed time: 0.703 seconds.

Total DRAM available = 3920.781250 MB.
DRAM currently available = 2542.246094 MB.
Total ngspice program size = 5.691406 MB.
Resident set size = 1.930664 MB.
Shared ngspice pages = 582.000 kB.
Text (code) pages = 1.073242 MB.
Stack = 0 bytes.
Library pages = 3.260742 MB.


