Warning: v2: no DC value, transient time 0 value used
Warning: v1: no DC value, transient time 0 value used

Circuit: **************************************************************

Reducing trtol to 1 for xspice 'A' devices
Doing analysis at TEMP = 27.000000 and TNOM = 27.000000


Initial Transient Solution
--------------------------

Node                                   Voltage
----                                   -------
vres                                 0.0304231
1                                      1.65209
vint01                               0.0276491
3                                    0.0294731
vint02                               0.0314839
2                                    0.0274721
vfb                                  0.0294184
vdd                                        3.3
4                                           -1
vin                                       1.65
vp                                          12
vm                                         -12
xu1.3                                  1.65105
xu1.4                                   2.3488
xu1.5                                 -11.9742
xu1.6                                 -11.9742
xu1.7                                  1.65209
xu1.16                             9.28449e-05
xu1.49                                       0
xu1.8                                    10.37
xu1.9                                0.0137285
xu1.10                                 -11.365
xu1.98                                       0
xu1.15                               0.0137285
xu1.17                                       0
xu1.23                               0.0137285
xu1.24                               0.0148175
xu1.26                                0.657649
xu1.22                               0.0276491
xu1.25                                0.013347
xu1.27                               -0.602351
xu1.21                               -0.242351
xu1.20                                0.297649
xu2.3                                0.0284726
xu2.4                                 0.726176
xu2.5                                 -11.9742
xu2.6                                 -11.9742
xu2.7                                0.0294737
xu2.16                             1.60113e-06
xu2.49                                       0
xu2.8                                    10.37
xu2.9                                 0.062768
xu2.10                                 -11.365
xu2.98                                       0
xu2.15                               0.0627679
xu2.17                                       0
xu2.23                               0.0627679
xu2.24                               0.0629642
xu2.26                                0.661484
xu2.22                               0.0314839
xu2.25                               0.0607148
xu2.27                               -0.598516
xu2.21                               -0.238516
xu2.20                                0.301484
xu3.5                                 -11.4579
xu3.6                                 -11.4579
xu3.4                                -0.885927
xu3.3                                0.0294231
xu3.98                                       0
xu3.97                                      -6
xu3.9                                0.0158161
xu3.8                                      5.9
xu3.10                                   -5.95
xu3.23                                0.029418
xu3.29                               0.0294184
xu3.40                                      12
xu3.41                                     -12
xu3.31                               0.0294184
xu3.25                                 1.42942
xu3.26                                -1.37058
xu3.110                              -0.460832
xu3.111                                      0
xu3.112                                      0
v.xu3.vi2#branch                   5.47012e-08
v.xu3.vt2#branch                   2.73508e-08
v.xu3.vi1#branch                  -4.61832e-13
v.xu3.vt1#branch                  -2.73508e-08
v.xu3.v6#branch                   -5.47017e-08
l.xu3.l1#branch                   -5.47017e-08
l.xu2.l3#branch                    0.000106101
l.xu2.l2#branch                   -1.60113e-09
l.xu1.l3#branch                   -4.04341e-05
l.xu1.l2#branch                   -9.28449e-08
e.xu3.eref2#branch                 -8.1631e-14
e.xu3.eref1#branch                 -8.1631e-14
e.xu2.e1#branch                    0.000106101
e.xu2.eh#branch                    1.18319e-12
e.xu1.e1#branch                   -4.04341e-05
e.xu1.eh#branch                    9.94662e-13
v.xu3.v5#branch                     -1.401e-12
v.xu3.v4#branch                     -1.401e-12
v.xu3.v3#branch                    5.96682e-12
v.xu3.v2#branch                    5.88518e-12
v.xu3.vos#branch                   2.24025e-11
v.xu2.v4#branch                   -2.39714e-13
v.xu2.v5#branch                   -3.02283e-13
v.xu2.v7#branch                    -0.00011732
v.xu2.v6#branch                   -1.12189e-05
v.xu2.v3#branch                    1.14288e-11
v.xu2.v2#branch                    1.03082e-11
v.xu1.v4#branch                    -2.8492e-13
v.xu1.v5#branch                   -2.57078e-13
v.xu1.v7#branch                    -2.1797e-05
v.xu1.v6#branch                   -6.22311e-05
v.xu1.v3#branch                    1.13797e-11
v.xu1.v2#branch                    1.03573e-11
v5#branch                          -0.00672332
v4#branch                          -0.00678912
v3#branch                         -0.000164791
v2#branch                          0.000103042
v1#branch                           5.2042e-08
a$poly$e.xu2.eos#branch_1_0        4.49521e-08
a$poly$e.xu1.eos#branch_1_0        4.49493e-08

 Reference value :  2.20022e-04 Reference value :  4.45023e-04 Reference value :  6.88020e-04 Reference value :  9.10017e-04 Reference value :  1.15502e-03 Reference value :  1.37504e-03

No. of Data Rows : 25067
                     **************************************************************
                     Transient Analysis  Sun Jan  4 07:09:46  2015
--------------------------------------------------------------------------------------------------------
Index   time            v(vint01)       v(vint02)       v(vres)         v(vfb)          v(vin)          
--------------------------------------------------------------------------------------------------------
0	0.000000e+00	2.764913e-02	3.148393e-02	3.042309e-02	2.941841e-02	1.650000e+00	
1	1.000000e-10	2.764913e-02	3.148393e-02	3.042309e-02	2.941841e-02	1.650001e+00	
2	2.000000e-10	2.764913e-02	3.148393e-02	3.042309e-02	2.941841e-02	1.650002e+00	
3	4.000000e-10	2.764913e-02	3.148393e-02	3.042309e-02	2.941841e-02	1.650004e+00	
4	8.000000e-10	2.764913e-02	3.148393e-02	3.042309e-02	2.941841e-02	1.650008e+00	
5	1.600000e-09	2.764914e-02	3.148393e-02	3.042309e-02	2.941841e-02	1.650017e+00	
6	3.200000e-09	2.764915e-02	3.148393e-02	3.042309e-02	2.941841e-02	1.650033e+00	
7	6.400000e-09	2.764917e-02	3.148393e-02	3.042309e-02	2.941841e-02	1.650066e+00	
8	1.000000e-08	2.764919e-02	3.148393e-02	3.042309e-02	2.941841e-02	1.650104e+00	
9	1.064000e-08	2.764919e-02	3.148401e-02	3.042317e-02	2.941841e-02	1.650110e+00	
10	1.192000e-08	2.764920e-02	3.148432e-02	3.042350e-02	2.941843e-02	1.650124e+00	
11	1.448000e-08	2.764922e-02	3.148588e-02	3.042514e-02	2.941871e-02	1.650150e+00	
12	1.960000e-08	2.764928e-02	3.149273e-02	3.043234e-02	2.942164e-02	1.650203e+00	
13	2.000000e-08	2.764928e-02	3.149347e-02	3.043313e-02	2.942203e-02	1.650207e+00	
14	2.080000e-08	2.764929e-02	3.149499e-02	3.043473e-02	2.942297e-02	1.650216e+00	
15	2.240000e-08	2.764932e-02	3.149804e-02	3.043792e-02	2.942506e-02	1.650232e+00	
16	2.560000e-08	2.764937e-02	3.150415e-02	3.044432e-02	2.943027e-02	1.650265e+00	
17	3.200000e-08	2.764952e-02	3.151637e-02	3.045711e-02	2.944251e-02	1.650332e+00	
18	4.480000e-08	2.765012e-02	3.154082e-02	3.048268e-02	2.946815e-02	1.650464e+00	
19	7.040000e-08	2.765350e-02	3.158967e-02	3.053378e-02	2.951921e-02	1.650730e+00	
20	1.018292e-07	2.766460e-02	3.164952e-02	3.059643e-02	2.958189e-02	1.651056e+00	
21	1.352585e-07	2.768989e-02	3.171301e-02	3.066296e-02	2.964841e-02	1.651402e+00	
22	1.727077e-07	2.774178e-02	3.178387e-02	3.073736e-02	2.972283e-02	1.651791e+00	
23	2.110962e-07	2.782788e-02	3.185617e-02	3.081349e-02	2.979895e-02	1.652188e+00	
24	2.534694e-07	2.796870e-02	3.193560e-02	3.089733e-02	2.988281e-02	1.652628e+00	
25	2.954606e-07	2.816045e-02	3.201398e-02	3.098023e-02	2.996571e-02	1.653063e+00	
26	3.404029e-07	2.842574e-02	3.209765e-02	3.106873e-02	3.005423e-02	1.653529e+00	
27	3.843131e-07	2.874435e-02	3.217942e-02	3.115498e-02	3.014049e-02	1.653984e+00	
28	4.368458e-07	2.919772e-02	3.227775e-02	3.125793e-02	3.024345e-02	1.654529e+00	
29	5.184052e-07	3.003314e-02	3.243312e-02	3.141738e-02	3.040290e-02	1.655374e+00	
30	6.525260e-07	3.163530e-02	3.270314e-02	3.167978e-02	3.066523e-02	1.656765e+00	
31	7.996375e-07	3.351762e-02	3.303319e-02	3.197092e-02	3.095615e-02	1.658290e+00	
32	9.542382e-07	3.542338e-02	3.343636e-02	3.228657e-02	3.127134e-02	1.659893e+00	
33	1.020000e-06	3.618197e-02	3.362967e-02	3.242548e-02	3.140997e-02	1.660575e+00	
34	1.021000e-06	3.619322e-02	3.363260e-02	3.242742e-02	3.141209e-02	1.660585e+00	
35	1.023000e-06	3.621570e-02	3.363796e-02	3.243090e-02	3.141626e-02	1.660606e+00	
36	1.027000e-06	3.626055e-02	3.364647e-02	3.243548e-02	3.142362e-02	1.660647e+00	
37	1.030000e-06	3.629409e-02	3.365089e-02	3.243682e-02	3.142772e-02	1.660678e+00	
38	1.030800e-06	3.630302e-02	3.365184e-02	3.243694e-02	3.142849e-02	1.660686e+00	
39	1.032400e-06	3.632088e-02	3.365376e-02	3.243718e-02	3.142981e-02	1.660703e+00	
40	1.035600e-06	3.635651e-02	3.365761e-02	3.243767e-02	3.143146e-02	1.660736e+00	
41	1.042000e-06	3.642754e-02	3.366542e-02	3.243869e-02	3.143299e-02	1.660803e+00	
42	1.054800e-06	3.656860e-02	3.368150e-02	3.244085e-02	3.143502e-02	1.660935e+00	
43	1.080400e-06	3.684689e-02	3.371564e-02	3.244572e-02	3.143979e-02	1.661201e+00	
44	1.131600e-06	3.738943e-02	3.379217e-02	3.245787e-02	3.145160e-02	1.661731e+00	
45	1.234000e-06	3.843078e-02	3.398194e-02	3.249335e-02	3.148635e-02	1.662793e+00	
46	1.438800e-06	4.043496e-02	3.454183e-02	3.262402e-02	3.161492e-02	1.664916e+00	
47	1.666079e-06	4.267559e-02	3.553269e-02	3.289906e-02	3.188647e-02	1.667272e+00	
48	1.882010e-06	4.489592e-02	3.695227e-02	3.334285e-02	3.232544e-02	1.669511e+00	
49	2.010000e-06	4.624760e-02	3.806018e-02	3.371530e-02	3.269428e-02	1.670838e+00	
50	2.011000e-06	4.625822e-02	3.806985e-02	3.371878e-02	3.269754e-02	1.670848e+00	
51	2.013000e-06	4.627946e-02	3.808959e-02	3.372616e-02	3.270416e-02	1.670869e+00	
52	2.017000e-06	4.632195e-02	3.813133e-02	3.374340e-02	3.271846e-02	1.670910e+00	
53	2.020000e-06	4.635382e-02	3.816463e-02	3.375848e-02	3.273068e-02	1.670941e+00	
54	2.020800e-06	4.636232e-02	3.817374e-02	3.376276e-02	3.273428e-02	1.670950e+00	
55	2.022400e-06	4.637931e-02	3.819199e-02	3.377132e-02	3.274170e-02	1.670966e+00	
56	2.025600e-06	4.641331e-02	3.822859e-02	3.378848e-02	3.275758e-02	1.670999e+00	
57	2.032000e-06	4.648132e-02	3.830221e-02	3.382298e-02	3.279134e-02	1.671066e+00	
58	2.044800e-06	4.661736e-02	3.845104e-02	3.389276e-02	3.286079e-02	1.671198e+00	
59	2.070400e-06	4.688947e-02	3.875503e-02	3.403537e-02	3.300256e-02	1.671464e+00	
60	2.121600e-06	4.743349e-02	3.938816e-02	3.433329e-02	3.329882e-02	1.671995e+00	
61	2.224000e-06	4.851846e-02	4.075194e-02	3.498276e-02	3.394468e-02	1.673056e+00	
62	2.428800e-06	5.066938e-02	4.382408e-02	3.651236e-02	3.546648e-02	1.675179e+00	
63	2.756794e-06	5.407475e-02	4.940117e-02	3.961869e-02	3.856010e-02	1.678579e+00	
64	3.020000e-06	5.679903e-02	5.410032e-02	4.265393e-02	4.158659e-02	1.681307e+00	
65	3.021000e-06	5.680941e-02	5.411798e-02	4.266610e-02	4.159891e-02	1.681318e+00	
66	3.023000e-06	5.683015e-02	5.415297e-02	4.269004e-02	4.162350e-02	1.681338e+00	
67	3.027000e-06	5.687164e-02	5.422101e-02	4.273559e-02	4.167173e-02	1.681380e+00	
68	3.030000e-06	5.690275e-02	5.427035e-02	4.276772e-02	4.170655e-02	1.681411e+00	
69	3.030800e-06	5.691105e-02	5.428331e-02	4.277606e-02	4.171551e-02	1.681419e+00	
70	3.032400e-06	5.692765e-02	5.430923e-02	4.279274e-02	4.173324e-02	1.681436e+00	
71	3.035600e-06	5.696085e-02	5.436104e-02	4.282614e-02	4.176773e-02	1.681469e+00	
72	3.042000e-06	5.702725e-02	5.446460e-02	4.289313e-02	4.183507e-02	1.681535e+00	
73	3.054800e-06	5.716009e-02	5.467149e-02	4.302781e-02	4.196930e-02	1.681668e+00	
74	3.080400e-06	5.742592e-02	5.508432e-02	4.329987e-02	4.224064e-02	1.681933e+00	
75	3.131600e-06	5.795811e-02	5.590577e-02	4.385439e-02	4.279372e-02	1.682464e+00	
76	3.234000e-06	5.902433e-02	5.752981e-02	4.500134e-02	4.393812e-02	1.683525e+00	
77	3.438800e-06	6.116103e-02	6.069012e-02	4.741938e-02	4.635204e-02	1.685648e+00	
78	3.801941e-06	6.495141e-02	6.596274e-02	5.197021e-02	5.089854e-02	1.689412e+00	
79	4.010000e-06	6.712095e-02	6.877199e-02	5.466325e-02	5.359053e-02	1.691568e+00	
80	4.011000e-06	6.713137e-02	6.878660e-02	5.467645e-02	5.360355e-02	1.691579e+00	
81	4.013000e-06	6.715221e-02	6.881350e-02	5.470325e-02	5.362965e-02	1.691599e+00	
82	4.017000e-06	6.719391e-02	6.886903e-02	5.475925e-02	5.368283e-02	1.691641e+00	
83	4.020000e-06	6.722518e-02	6.891233e-02	5.480335e-02	5.372415e-02	1.691672e+00	
84	4.020800e-06	6.723351e-02	6.892404e-02	5.481535e-02	5.373549e-02	1.691680e+00	
85	4.022400e-06	6.725019e-02	6.894747e-02	5.483935e-02	5.375839e-02	1.691697e+00	
86	4.025600e-06	6.728354e-02	6.899433e-02	5.488734e-02	5.380520e-02	1.691730e+00	
87	4.032000e-06	6.735025e-02	6.908792e-02	5.498331e-02	5.390062e-02	1.691796e+00	
88	4.044800e-06	6.748367e-02	6.927463e-02	5.517520e-02	5.409257e-02	1.691929e+00	
89	4.070400e-06	6.775049e-02	6.964610e-02	5.555874e-02	5.447608e-02	1.692194e+00	
90	4.121600e-06	6.828413e-02	7.038100e-02	5.632467e-02	5.524206e-02	1.692725e+00	
91	4.224000e-06	6.935152e-02	7.181665e-02	5.785010e-02	5.676767e-02	1.693786e+00	
92	4.405119e-06	7.124021e-02	7.423793e-02	6.051706e-02	5.943542e-02	1.695663e+00	
93	4.572084e-06	7.298238e-02	7.633642e-02	6.292815e-02	6.184766e-02	1.697393e+00	
94	4.785053e-06	7.520586e-02	7.884338e-02	6.591774e-02	6.483918e-02	1.699600e+00	
95	5.020000e-06	7.765989e-02	8.142463e-02	6.908847e-02	6.801232e-02	1.702035e+00	
96	5.021000e-06	7.767034e-02	8.143520e-02	6.910146e-02	6.802552e-02	1.702045e+00	
97	5.023000e-06	7.769123e-02	8.145580e-02	6.912705e-02	6.805183e-02	1.702066e+00	
98	5.027000e-06	7.773302e-02	8.149507e-02	6.917579e-02	6.810341e-02	1.702108e+00	
99	5.030000e-06	7.776435e-02	8.152284e-02	6.921022e-02	6.814065e-02	1.702139e+00	
100	5.030800e-06	7.777271e-02	8.153005e-02	6.921916e-02	6.815025e-02	1.702147e+00	
101	5.032400e-06	7.778942e-02	8.154446e-02	6.923703e-02	6.816923e-02	1.702163e+00	
102	5.035600e-06	7.782285e-02	8.157326e-02	6.927276e-02	6.820617e-02	1.702197e+00	
103	5.042000e-06	7.788971e-02	8.163077e-02	6.934415e-02	6.827817e-02	1.702263e+00	
104	5.054800e-06	7.802341e-02	8.174551e-02	6.948666e-02	6.842072e-02	1.702396e+00	
105	5.080400e-06	7.829084e-02	8.197389e-02	6.977060e-02	6.870493e-02	1.702661e+00	
106	5.120410e-06	7.870880e-02	8.232820e-02	7.021150e-02	6.914617e-02	1.703075e+00	
107	5.166295e-06	7.918816e-02	8.273120e-02	7.071285e-02	6.964794e-02	1.703551e+00	
108	5.221232e-06	7.976212e-02	8.321014e-02	7.130717e-02	7.024274e-02	1.704120e+00	
109	5.289937e-06	8.047998e-02	8.380550e-02	7.204161e-02	7.097777e-02	1.704832e+00	
110	5.379508e-06	8.141597e-02	8.457893e-02	7.298512e-02	7.192197e-02	1.705760e+00	
111	5.496299e-06	8.263660e-02	8.558789e-02	7.419350e-02	7.313119e-02	1.706970e+00	
112	5.652211e-06	8.426651e-02	8.694384e-02	7.577324e-02	7.471181e-02	1.708586e+00	
113	5.863560e-06	8.647665e-02	8.881004e-02	7.786628e-02	7.680568e-02	1.710775e+00	
114	6.010000e-06	8.800848e-02	9.012670e-02	7.929144e-02	7.823117e-02	1.712292e+00	
115	6.011000e-06	8.801894e-02	9.013597e-02	7.930132e-02	7.824087e-02	1.712303e+00	
116	6.013000e-06	8.803987e-02	9.015474e-02	7.932147e-02	7.826032e-02	1.712323e+00	
117	6.017000e-06	8.808172e-02	9.019421e-02	7.936416e-02	7.830022e-02	1.712365e+00	
118	6.020000e-06	8.811310e-02	9.022551e-02	7.939827e-02	7.833156e-02	1.712396e+00	
119	6.020800e-06	8.812147e-02	9.023405e-02	7.940760e-02	7.834024e-02	1.712404e+00	
120	6.022400e-06	8.813821e-02	9.025114e-02	7.942627e-02	7.835782e-02	1.712421e+00	
121	6.025600e-06	8.817170e-02	9.028533e-02	7.946359e-02	7.839397e-02	1.712454e+00	
122	6.032000e-06	8.823866e-02	9.035374e-02	7.953821e-02	7.846806e-02	1.712520e+00	
123	6.044800e-06	8.837259e-02	9.049067e-02	7.968733e-02	7.861729e-02	1.712653e+00	
124	6.070400e-06	8.864045e-02	9.076485e-02	7.998510e-02	7.891510e-02	1.712918e+00	
125	6.121600e-06	8.917620e-02	9.131428e-02	8.057885e-02	7.950900e-02	1.713449e+00	
126	6.224000e-06	9.024780e-02	9.241500e-02	8.175979e-02	8.069015e-02	1.714509e+00	
127	6.379624e-06	9.187663e-02	9.408441e-02	8.353928e-02	8.246994e-02	1.716121e+00	
128	6.546672e-06	9.362535e-02	9.586277e-02	8.543018e-02	8.436110e-02	1.717852e+00	
129	6.769725e-06	9.596094e-02	9.820883e-02	8.792493e-02	8.685623e-02	1.720162e+00	
130	7.020000e-06	9.858249e-02	1.008053e-01	9.068390e-02	8.961557e-02	1.722755e+00	
131	7.021000e-06	9.859297e-02	1.008155e-01	9.069464e-02	8.962650e-02	1.722765e+00	
132	7.023000e-06	9.861392e-02	1.008354e-01	9.071571e-02	8.964829e-02	1.722786e+00	
133	7.027000e-06	9.865583e-02	1.008734e-01	9.075546e-02	8.969084e-02	1.722827e+00	
134	7.030000e-06	9.868726e-02	1.009002e-01	9.078317e-02	8.972133e-02	1.722858e+00	
135	7.030800e-06	9.869564e-02	1.009072e-01	9.079032e-02	8.972913e-02	1.722866e+00	
136	7.032400e-06	9.871240e-02	1.009211e-01	9.080461e-02	8.974452e-02	1.722883e+00	
137	7.035600e-06	9.874592e-02	1.009488e-01	9.083320e-02	8.977429e-02	1.722916e+00	
138	7.042000e-06	9.881297e-02	1.010044e-01	9.089037e-02	8.983201e-02	1.722982e+00	
139	7.054800e-06	9.894707e-02	1.011154e-01	9.100468e-02	8.994625e-02	1.723115e+00	
140	7.080400e-06	9.921527e-02	1.013375e-01	9.123316e-02	9.017476e-02	1.723380e+00	
141	7.131600e-06	9.975170e-02	1.017818e-01	9.168961e-02	9.063118e-02	1.723910e+00	
142	7.234000e-06	1.008247e-01	1.026739e-01	9.260078e-02	9.154233e-02	1.724971e+00	
143	7.393648e-06	1.024980e-01	1.040844e-01	9.401884e-02	9.296021e-02	1.726624e+00	
144	7.573660e-06	1.043853e-01	1.057162e-01	9.561938e-02	9.456039e-02	1.728488e+00	
145	7.825328e-06	1.070248e-01	1.080839e-01	9.787419e-02	9.681431e-02	1.731094e+00	
146	8.010000e-06	1.089622e-01	1.098861e-01	9.955012e-02	9.848939e-02	1.733007e+00	
147	8.011000e-06	1.089727e-01	1.098962e-01	9.955946e-02	9.849853e-02	1.733017e+00	
148	8.013000e-06	1.089936e-01	1.099166e-01	9.957854e-02	9.851689e-02	1.733038e+00	
149	8.017000e-06	1.090356e-01	1.099595e-01	9.961909e-02	9.855463e-02	1.733079e+00	
150	8.020000e-06	1.090671e-01	1.099933e-01	9.965162e-02	9.858436e-02	1.733110e+00	
151	8.020800e-06	1.090755e-01	1.100026e-01	9.966053e-02	9.859262e-02	1.733118e+00	
152	8.022400e-06	1.090923e-01	1.100210e-01	9.967836e-02	9.860935e-02	1.733135e+00	
153	8.025600e-06	1.091259e-01	1.100579e-01	9.971402e-02	9.864382e-02	1.733168e+00	
154	8.032000e-06	1.091930e-01	1.101318e-01	9.978535e-02	9.871458e-02	1.733234e+00	
155	8.044800e-06	1.093273e-01	1.102798e-01	9.992806e-02	9.885730e-02	1.733367e+00	
156	8.070400e-06	1.095960e-01	1.105761e-01	1.002137e-01	9.914279e-02	1.733632e+00	
157	8.121600e-06	1.101333e-01	1.111706e-01	1.007857e-01	9.971464e-02	1.734162e+00	
158	8.224000e-06	1.112080e-01	1.123636e-01	1.019331e-01	1.008616e-01	1.735222e+00	
159	8.425644e-06	1.133247e-01	1.147096e-01	1.042039e-01	1.031317e-01	1.737310e+00	
160	8.615096e-06	1.153138e-01	1.168927e-01	1.063475e-01	1.052748e-01	1.739271e+00	
161	8.895627e-06	1.182601e-01	1.200663e-01	1.095251e-01	1.084519e-01	1.742175e+00	
162	9.020000e-06	1.195667e-01	1.214495e-01	1.109316e-01	1.098583e-01	1.743463e+00	
163	9.021000e-06	1.195772e-01	1.214604e-01	1.109427e-01	1.098696e-01	1.743473e+00	
164	9.023000e-06	1.195983e-01	1.214819e-01	1.109644e-01	1.098921e-01	1.743494e+00	
165	9.027000e-06	1.196403e-01	1.215229e-01	1.110056e-01	1.099360e-01	1.743535e+00	
166	9.030000e-06	1.196718e-01	1.215520e-01	1.110344e-01	1.099676e-01	1.743566e+00	
167	9.030800e-06	1.196802e-01	1.215596e-01	1.110418e-01	1.099757e-01	1.743574e+00	
168	9.032400e-06	1.196970e-01	1.215747e-01	1.110567e-01	1.099916e-01	1.743591e+00	
169	9.035600e-06	1.197306e-01	1.216049e-01	1.110865e-01	1.100226e-01	1.743624e+00	
170	9.042000e-06	1.197979e-01	1.216652e-01	1.111460e-01	1.100826e-01	1.743690e+00	
171	9.054800e-06	1.199324e-01	1.217859e-01	1.112650e-01	1.102015e-01	1.743823e+00	
172	9.080400e-06	1.202013e-01	1.220270e-01	1.115030e-01	1.104396e-01	1.744088e+00	
173	9.131600e-06	1.207393e-01	1.225085e-01	1.119793e-01	1.109157e-01	1.744618e+00	
174	9.234000e-06	1.218153e-01	1.234713e-01	1.129326e-01	1.118688e-01	1.745678e+00	
175	9.407193e-06	1.236357e-01	1.251114e-01	1.145473e-01	1.134832e-01	1.747470e+00	
176	9.589957e-06	1.255573e-01	1.268710e-01	1.162576e-01	1.151930e-01	1.749361e+00	
177	9.853895e-06	1.283333e-01	1.294782e-01	1.187482e-01	1.176826e-01	1.752093e+00	
178	1.001000e-05	1.299756e-01	1.310572e-01	1.202368e-01	1.191706e-01	1.753708e+00	
179	1.001100e-05	1.299861e-01	1.310675e-01	1.202466e-01	1.191802e-01	1.753718e+00	
180	1.001300e-05	1.300071e-01	1.310886e-01	1.202666e-01	1.191994e-01	1.753739e+00	
181	1.001700e-05	1.300492e-01	1.311326e-01	1.203089e-01	1.192389e-01	1.753780e+00	
182	1.002000e-05	1.300808e-01	1.311673e-01	1.203427e-01	1.192700e-01	1.753811e+00	
183	1.002080e-05	1.300892e-01	1.311767e-01	1.203520e-01	1.192786e-01	1.753820e+00	
184	1.002240e-05	1.301060e-01	1.311957e-01	1.203705e-01	1.192961e-01	1.753836e+00	
185	1.002560e-05	1.301397e-01	1.312335e-01	1.204076e-01	1.193319e-01	1.753869e+00	
186	1.003200e-05	1.302070e-01	1.313092e-01	1.204818e-01	1.194055e-01	1.753935e+00	
187	1.004480e-05	1.303417e-01	1.314606e-01	1.206301e-01	1.195539e-01	1.754068e+00	
188	1.007040e-05	1.306111e-01	1.317638e-01	1.209268e-01	1.198505e-01	1.754333e+00	
189	1.012160e-05	1.311499e-01	1.323710e-01	1.215208e-01	1.204443e-01	1.754862e+00	
190	1.022400e-05	1.322276e-01	1.335859e-01	1.227105e-01	1.216337e-01	1.755922e+00	
191	1.042104e-05	1.343016e-01	1.359085e-01	1.250044e-01	1.239272e-01	1.757960e+00	
192	1.060729e-05	1.362624e-01	1.380701e-01	1.271737e-01	1.260962e-01	1.759887e+00	
193	1.087879e-05	1.391216e-01	1.411470e-01	1.303237e-01	1.292460e-01	1.762695e+00	
194	1.102000e-05	1.406090e-01	1.427128e-01	1.319518e-01	1.308742e-01	1.764156e+00	
195	1.102100e-05	1.406196e-01	1.427236e-01	1.319631e-01	1.308856e-01	1.764166e+00	
196	1.102300e-05	1.406406e-01	1.427450e-01	1.319853e-01	1.309085e-01	1.764187e+00	
197	1.102700e-05	1.406828e-01	1.427858e-01	1.320273e-01	1.309533e-01	1.764228e+00	
198	1.103000e-05	1.407144e-01	1.428147e-01	1.320566e-01	1.309855e-01	1.764259e+00	
199	1.103080e-05	1.407228e-01	1.428222e-01	1.320642e-01	1.309937e-01	1.764268e+00	
200	1.103240e-05	1.407397e-01	1.428373e-01	1.320794e-01	1.310100e-01	1.764284e+00	
201	1.103560e-05	1.407734e-01	1.428673e-01	1.321098e-01	1.310416e-01	1.764317e+00	
202	1.104200e-05	1.408408e-01	1.429273e-01	1.321706e-01	1.311029e-01	1.764383e+00	
203	1.105480e-05	1.409756e-01	1.430473e-01	1.322920e-01	1.312243e-01	1.764516e+00	
204	1.108040e-05	1.412453e-01	1.432869e-01	1.325349e-01	1.314672e-01	1.764781e+00	
205	1.113160e-05	1.417847e-01	1.437650e-01	1.330204e-01	1.319526e-01	1.765310e+00	
206	1.123400e-05	1.428637e-01	1.447201e-01	1.339902e-01	1.329223e-01	1.766369e+00	
207	1.139774e-05	1.445892e-01	1.462555e-01	1.355381e-01	1.344701e-01	1.768062e+00	
208	1.157563e-05	1.464646e-01	1.479482e-01	1.372193e-01	1.361509e-01	1.769902e+00	
209	1.182509e-05	1.490950e-01	1.503795e-01	1.395852e-01	1.385162e-01	1.772481e+00	
210	1.201000e-05	1.510454e-01	1.522269e-01	1.413518e-01	1.402821e-01	1.774393e+00	
211	1.201100e-05	1.510560e-01	1.522372e-01	1.413616e-01	1.402917e-01	1.774403e+00	
212	1.201300e-05	1.510771e-01	1.522580e-01	1.413816e-01	1.403110e-01	1.774424e+00	
213	1.201700e-05	1.511193e-01	1.523016e-01	1.414239e-01	1.403506e-01	1.774465e+00	
214	1.202000e-05	1.511509e-01	1.523360e-01	1.414578e-01	1.403817e-01	1.774496e+00	
215	1.202080e-05	1.511593e-01	1.523454e-01	1.414671e-01	1.403903e-01	1.774504e+00	
216	1.202240e-05	1.511762e-01	1.523641e-01	1.414856e-01	1.404077e-01	1.774521e+00	
217	1.202560e-05	1.512100e-01	1.524016e-01	1.415227e-01	1.404436e-01	1.774554e+00	
218	1.203200e-05	1.512775e-01	1.524766e-01	1.415970e-01	1.405173e-01	1.774620e+00	
219	1.204480e-05	1.514125e-01	1.526267e-01	1.417454e-01	1.406658e-01	1.774752e+00	
220	1.207040e-05	1.516826e-01	1.529271e-01	1.420423e-01	1.409626e-01	1.775017e+00	
221	1.212160e-05	1.522228e-01	1.535290e-01	1.426364e-01	1.415566e-01	1.775546e+00	
222	1.222400e-05	1.533033e-01	1.547336e-01	1.438257e-01	1.427456e-01	1.776605e+00	
223	1.241770e-05	1.553474e-01	1.569992e-01	1.460773e-01	1.449968e-01	1.778607e+00	
224	1.260266e-05	1.572996e-01	1.591320e-01	1.482264e-01	1.471456e-01	1.780518e+00	
225	1.287091e-05	1.601317e-01	1.621573e-01	1.513292e-01	1.502484e-01	1.783291e+00	
226	1.302000e-05	1.617062e-01	1.638042e-01	1.530423e-01	1.519615e-01	1.784831e+00	
227	1.302100e-05	1.617167e-01	1.638151e-01	1.530536e-01	1.519730e-01	1.784841e+00	
228	1.302300e-05	1.617379e-01	1.638364e-01	1.530757e-01	1.519958e-01	1.784862e+00	
229	1.302700e-05	1.617801e-01	1.638770e-01	1.531175e-01	1.520404e-01	1.784903e+00	
230	1.303000e-05	1.618118e-01	1.639058e-01	1.531468e-01	1.520725e-01	1.784934e+00	
231	1.303080e-05	1.618202e-01	1.639133e-01	1.531543e-01	1.520807e-01	1.784943e+00	
232	1.303240e-05	1.618371e-01	1.639282e-01	1.531694e-01	1.520969e-01	1.784959e+00	
233	1.303560e-05	1.618709e-01	1.639581e-01	1.531997e-01	1.521283e-01	1.784992e+00	
234	1.304200e-05	1.619385e-01	1.640179e-01	1.532602e-01	1.521893e-01	1.785058e+00	
235	1.305480e-05	1.620737e-01	1.641374e-01	1.533811e-01	1.523102e-01	1.785191e+00	
236	1.308040e-05	1.623441e-01	1.643760e-01	1.536230e-01	1.525521e-01	1.785455e+00	
237	1.313160e-05	1.628848e-01	1.648525e-01	1.541064e-01	1.530354e-01	1.785984e+00	
238	1.323400e-05	1.639665e-01	1.658048e-01	1.550720e-01	1.540010e-01	1.787042e+00	
239	1.339840e-05	1.657034e-01	1.673435e-01	1.566200e-01	1.555488e-01	1.788741e+00	
240	1.357708e-05	1.675917e-01	1.690429e-01	1.583026e-01	1.572311e-01	1.790586e+00	
241	1.382841e-05	1.702484e-01	1.714949e-01	1.606798e-01	1.596075e-01	1.793182e+00	
242	1.401000e-05	1.721685e-01	1.733130e-01	1.624113e-01	1.613383e-01	1.795058e+00	
243	1.401100e-05	1.721790e-01	1.733233e-01	1.624210e-01	1.613479e-01	1.795068e+00	
244	1.401300e-05	1.722002e-01	1.733441e-01	1.624410e-01	1.613672e-01	1.795089e+00	
245	1.401700e-05	1.722425e-01	1.733878e-01	1.624833e-01	1.614067e-01	1.795130e+00	
246	1.402000e-05	1.722742e-01	1.734223e-01	1.625171e-01	1.614377e-01	1.795161e+00	
247	1.402080e-05	1.722827e-01	1.734317e-01	1.625264e-01	1.614463e-01	1.795169e+00	
248	1.402240e-05	1.722996e-01	1.734504e-01	1.625449e-01	1.614638e-01	1.795186e+00	
249	1.402560e-05	1.723334e-01	1.734880e-01	1.625820e-01	1.614996e-01	1.795219e+00	
250	1.403200e-05	1.724011e-01	1.735632e-01	1.626561e-01	1.615732e-01	1.795285e+00	
251	1.404480e-05	1.725365e-01	1.737136e-01	1.628044e-01	1.617215e-01	1.795417e+00	
252	1.407040e-05	1.728072e-01	1.740147e-01	1.631009e-01	1.620180e-01	1.795681e+00	
253	1.412160e-05	1.733487e-01	1.746180e-01	1.636944e-01	1.626113e-01	1.796210e+00	
254	1.422400e-05	1.744319e-01	1.758256e-01	1.648827e-01	1.637993e-01	1.797268e+00	
255	1.441908e-05	1.764955e-01	1.781139e-01	1.671498e-01	1.660659e-01	1.799282e+00	
256	1.460474e-05	1.784598e-01	1.802615e-01	1.693076e-01	1.682234e-01	1.801199e+00	
257	1.487491e-05	1.813189e-01	1.833185e-01	1.724351e-01	1.713509e-01	1.803988e+00	
258	1.502000e-05	1.828548e-01	1.849272e-01	1.741046e-01	1.730204e-01	1.805485e+00	
259	1.502100e-05	1.828654e-01	1.849380e-01	1.741159e-01	1.730318e-01	1.805495e+00	
260	1.502300e-05	1.828866e-01	1.849594e-01	1.741380e-01	1.730547e-01	1.805516e+00	
261	1.502700e-05	1.829289e-01	1.850002e-01	1.741799e-01	1.730994e-01	1.805557e+00	
262	1.503000e-05	1.829607e-01	1.850292e-01	1.742092e-01	1.731315e-01	1.805588e+00	
263	1.503080e-05	1.829691e-01	1.850367e-01	1.742168e-01	1.731397e-01	1.805597e+00	
264	1.503240e-05	1.829861e-01	1.850517e-01	1.742319e-01	1.731559e-01	1.805613e+00	
265	1.503560e-05	1.830199e-01	1.850818e-01	1.742623e-01	1.731874e-01	1.805646e+00	
266	1.504200e-05	1.830877e-01	1.851418e-01	1.743229e-01	1.732486e-01	1.805712e+00	
267	1.505480e-05	1.832232e-01	1.852618e-01	1.744441e-01	1.733697e-01	1.805844e+00	
268	1.508040e-05	1.834942e-01	1.855016e-01	1.746864e-01	1.736121e-01	1.806109e+00	
269	1.513160e-05	1.840362e-01	1.859803e-01	1.751709e-01	1.740965e-01	1.806637e+00	
270	1.523400e-05	1.851204e-01	1.869371e-01	1.761388e-01	1.750643e-01	1.807694e+00	
271	1.539958e-05	1.868739e-01	1.884940e-01	1.777020e-01	1.766273e-01	1.809402e+00	
272	1.557878e-05	1.887720e-01	1.902062e-01	1.793944e-01	1.783194e-01	1.811251e+00	
273	1.583168e-05	1.914516e-01	1.926849e-01	1.817944e-01	1.807187e-01	1.813861e+00	
274	1.601000e-05	1.933413e-01	1.944777e-01	1.835006e-01	1.824242e-01	1.815700e+00	
275	1.601100e-05	1.933519e-01	1.944880e-01	1.835104e-01	1.824338e-01	1.815710e+00	
276	1.601300e-05	1.933731e-01	1.945090e-01	1.835305e-01	1.824531e-01	1.815731e+00	
277	1.601700e-05	1.934155e-01	1.945528e-01	1.835729e-01	1.824927e-01	1.815772e+00	
278	1.602000e-05	1.934473e-01	1.945874e-01	1.836068e-01	1.825239e-01	1.815803e+00	
279	1.602080e-05	1.934558e-01	1.945968e-01	1.836161e-01	1.825325e-01	1.815811e+00	
280	1.602240e-05	1.934728e-01	1.946156e-01	1.836347e-01	1.825500e-01	1.815828e+00	
281	1.602560e-05	1.935067e-01	1.946533e-01	1.836719e-01	1.825860e-01	1.815861e+00	
282	1.603200e-05	1.935745e-01	1.947287e-01	1.837462e-01	1.826597e-01	1.815927e+00	
283	1.604480e-05	1.937102e-01	1.948796e-01	1.838949e-01	1.828085e-01	1.816059e+00	
284	1.607040e-05	1.939816e-01	1.951817e-01	1.841923e-01	1.831058e-01	1.816323e+00	
285	1.612160e-05	1.945243e-01	1.957868e-01	1.847875e-01	1.837009e-01	1.816851e+00	
286	1.622400e-05	1.956099e-01	1.969981e-01	1.859792e-01	1.848923e-01	1.817907e+00	
287	1.641942e-05	1.976817e-01	1.992969e-01	1.882568e-01	1.871695e-01	1.819923e+00	
288	1.660518e-05	1.996516e-01	2.014513e-01	1.904220e-01	1.893344e-01	1.821838e+00	
289	1.687564e-05	2.025201e-01	2.045188e-01	1.935617e-01	1.924739e-01	1.824626e+00	
290	1.702000e-05	2.040516e-01	2.061227e-01	1.952272e-01	1.941395e-01	1.826115e+00	
291	1.702100e-05	2.040622e-01	2.061336e-01	1.952385e-01	1.941510e-01	1.826125e+00	
292	1.702300e-05	2.040834e-01	2.061550e-01	1.952607e-01	1.941739e-01	1.826145e+00	
293	1.702700e-05	2.041258e-01	2.061960e-01	1.953027e-01	1.942187e-01	1.826187e+00	
294	1.703000e-05	2.041577e-01	2.062249e-01	1.953321e-01	1.942509e-01	1.826218e+00	
295	1.703080e-05	2.041662e-01	2.062325e-01	1.953398e-01	1.942591e-01	1.826226e+00	
296	1.703240e-05	2.041831e-01	2.062475e-01	1.953550e-01	1.942754e-01	1.826242e+00	
297	1.703560e-05	2.042171e-01	2.062777e-01	1.953854e-01	1.943070e-01	1.826275e+00	
298	1.704200e-05	2.042850e-01	2.063379e-01	1.954462e-01	1.943684e-01	1.826341e+00	
299	1.705480e-05	2.044208e-01	2.064582e-01	1.955678e-01	1.944899e-01	1.826473e+00	
300	1.708040e-05	2.046924e-01	2.066986e-01	1.958109e-01	1.947330e-01	1.826737e+00	
301	1.713160e-05	2.052356e-01	2.071785e-01	1.962969e-01	1.952190e-01	1.827265e+00	
302	1.723400e-05	2.063221e-01	2.081376e-01	1.972678e-01	1.961898e-01	1.828320e+00	
303	1.739957e-05	2.080793e-01	2.096982e-01	1.988358e-01	1.977576e-01	1.830027e+00	
304	1.757873e-05	2.099811e-01	2.114139e-01	2.005328e-01	1.994542e-01	1.831873e+00	
305	1.783153e-05	2.126653e-01	2.138969e-01	2.029384e-01	2.018591e-01	1.834477e+00	
306	1.801000e-05	2.145607e-01	2.156949e-01	2.046506e-01	2.035707e-01	1.836316e+00	
307	1.801100e-05	2.145713e-01	2.157052e-01	2.046604e-01	2.035803e-01	1.836326e+00	
308	1.801300e-05	2.145926e-01	2.157262e-01	2.046805e-01	2.035997e-01	1.836347e+00	
309	1.801700e-05	2.146350e-01	2.157702e-01	2.047230e-01	2.036394e-01	1.836388e+00	
310	1.802000e-05	2.146669e-01	2.158048e-01	2.047571e-01	2.036706e-01	1.836419e+00	
311	1.802080e-05	2.146754e-01	2.158142e-01	2.047664e-01	2.036793e-01	1.836427e+00	
312	1.802240e-05	2.146924e-01	2.158331e-01	2.047850e-01	2.036968e-01	1.836444e+00	
313	1.802560e-05	2.147264e-01	2.158708e-01	2.048222e-01	2.037329e-01	1.836477e+00	
314	1.803200e-05	2.147944e-01	2.159463e-01	2.048967e-01	2.038068e-01	1.836543e+00	
315	1.804480e-05	2.149303e-01	2.160975e-01	2.050457e-01	2.039558e-01	1.836675e+00	
316	1.807040e-05	2.152023e-01	2.164001e-01	2.053438e-01	2.042538e-01	1.836938e+00	
317	1.812160e-05	2.157462e-01	2.170062e-01	2.059402e-01	2.048501e-01	1.837466e+00	
318	1.822400e-05	2.168340e-01	2.182195e-01	2.071344e-01	2.060440e-01	1.838520e+00	
319	1.841944e-05	2.189104e-01	2.205220e-01	2.094168e-01	2.083260e-01	1.840533e+00	
320	1.860520e-05	2.208843e-01	2.226797e-01	2.115862e-01	2.104951e-01	1.842446e+00	
321	1.887569e-05	2.237591e-01	2.257521e-01	2.147320e-01	2.136407e-01	1.845231e+00	
322	1.902000e-05	2.252931e-01	2.273578e-01	2.163998e-01	2.153086e-01	1.846716e+00	
323	1.902100e-05	2.253038e-01	2.273687e-01	2.164112e-01	2.153202e-01	1.846726e+00	
324	1.902300e-05	2.253250e-01	2.273902e-01	2.164334e-01	2.153431e-01	1.846747e+00	
325	1.902700e-05	2.253675e-01	2.274312e-01	2.164755e-01	2.153880e-01	1.846788e+00	
326	1.903000e-05	2.253994e-01	2.274602e-01	2.165050e-01	2.154202e-01	1.846819e+00	
327	1.903080e-05	2.254079e-01	2.274678e-01	2.165126e-01	2.154285e-01	1.846827e+00	
328	1.903240e-05	2.254249e-01	2.274828e-01	2.165278e-01	2.154448e-01	1.846844e+00	
329	1.903560e-05	2.254590e-01	2.275130e-01	2.165583e-01	2.154765e-01	1.846877e+00	
330	1.904200e-05	2.255270e-01	2.275734e-01	2.166192e-01	2.155380e-01	1.846943e+00	
331	1.905480e-05	2.256631e-01	2.276939e-01	2.167411e-01	2.156597e-01	1.847074e+00	
332	1.908040e-05	2.259352e-01	2.279347e-01	2.169847e-01	2.159034e-01	1.847338e+00	
333	1.913160e-05	2.264795e-01	2.284155e-01	2.174717e-01	2.163904e-01	1.847865e+00	
334	1.923400e-05	2.275683e-01	2.293764e-01	2.184447e-01	2.173632e-01	1.848919e+00	
335	1.939971e-05	2.293304e-01	2.309413e-01	2.200172e-01	2.189355e-01	1.850624e+00	
336	1.957895e-05	2.312369e-01	2.326610e-01	2.217184e-01	2.206364e-01	1.852468e+00	
337	1.983195e-05	2.339285e-01	2.351511e-01	2.241308e-01	2.230481e-01	1.855071e+00	
338	2.001000e-05	2.358232e-01	2.369484e-01	2.258424e-01	2.247590e-01	1.856903e+00	
339	2.001100e-05	2.358338e-01	2.369588e-01	2.258522e-01	2.247687e-01	1.856913e+00	
340	2.001300e-05	2.358551e-01	2.369798e-01	2.258724e-01	2.247881e-01	1.856934e+00	
341	2.001700e-05	2.358976e-01	2.370238e-01	2.259150e-01	2.248279e-01	1.856975e+00	
342	2.002000e-05	2.359296e-01	2.370585e-01	2.259491e-01	2.248592e-01	1.857006e+00	
343	2.002080e-05	2.359381e-01	2.370679e-01	2.259584e-01	2.248678e-01	1.857014e+00	
344	2.002240e-05	2.359551e-01	2.370868e-01	2.259770e-01	2.248854e-01	1.857030e+00	
345	2.002560e-05	2.359892e-01	2.371246e-01	2.260143e-01	2.249215e-01	1.857063e+00	
346	2.003200e-05	2.360573e-01	2.372003e-01	2.260889e-01	2.249955e-01	1.857129e+00	
347	2.004480e-05	2.361935e-01	2.373516e-01	2.262382e-01	2.251448e-01	1.857261e+00	
348	2.007040e-05	2.364660e-01	2.376547e-01	2.265368e-01	2.254433e-01	1.857524e+00	
349	2.012160e-05	2.370109e-01	2.382619e-01	2.271342e-01	2.260406e-01	1.858050e+00	
350	2.022400e-05	2.381009e-01	2.394771e-01	2.283304e-01	2.272365e-01	1.859104e+00	
351	2.041961e-05	2.401831e-01	2.417854e-01	2.306185e-01	2.295242e-01	1.861115e+00	
352	2.060544e-05	2.421615e-01	2.439473e-01	2.327923e-01	2.316977e-01	1.863026e+00	
353	2.087615e-05	2.450440e-01	2.470269e-01	2.359457e-01	2.348510e-01	1.865808e+00	
354	2.102000e-05	2.465761e-01	2.486301e-01	2.376110e-01	2.365163e-01	1.867287e+00	
355	2.102100e-05	2.465867e-01	2.486410e-01	2.376223e-01	2.365278e-01	1.867297e+00	
356	2.102300e-05	2.466080e-01	2.486625e-01	2.376446e-01	2.365508e-01	1.867318e+00	
357	2.102700e-05	2.466506e-01	2.487035e-01	2.376868e-01	2.365958e-01	1.867359e+00	
358	2.103000e-05	2.466826e-01	2.487326e-01	2.377163e-01	2.366281e-01	1.867390e+00	
359	2.103080e-05	2.466911e-01	2.487402e-01	2.377239e-01	2.366364e-01	1.867398e+00	
360	2.103240e-05	2.467081e-01	2.487553e-01	2.377392e-01	2.366527e-01	1.867414e+00	
361	2.103560e-05	2.467422e-01	2.487856e-01	2.377697e-01	2.366844e-01	1.867447e+00	
362	2.104200e-05	2.468104e-01	2.488460e-01	2.378308e-01	2.367460e-01	1.867513e+00	
363	2.105480e-05	2.469467e-01	2.489668e-01	2.379529e-01	2.368681e-01	1.867644e+00	
364	2.108040e-05	2.472193e-01	2.492081e-01	2.381970e-01	2.371122e-01	1.867907e+00	
365	2.113160e-05	2.477647e-01	2.496898e-01	2.386850e-01	2.376001e-01	1.868434e+00	
366	2.123400e-05	2.488554e-01	2.506526e-01	2.396598e-01	2.385749e-01	1.869486e+00	
367	2.139992e-05	2.506231e-01	2.522226e-01	2.412374e-01	2.401523e-01	1.871191e+00	
368	2.157926e-05	2.525341e-01	2.539468e-01	2.429429e-01	2.418574e-01	1.873033e+00	
369	2.183255e-05	2.552337e-01	2.564447e-01	2.453629e-01	2.442767e-01	1.875634e+00	
370	2.201000e-05	2.571253e-01	2.582396e-01	2.470721e-01	2.459852e-01	1.877457e+00	
371	2.201100e-05	2.571360e-01	2.582499e-01	2.470819e-01	2.459949e-01	1.877467e+00	
372	2.201300e-05	2.571573e-01	2.582710e-01	2.471021e-01	2.460143e-01	1.877487e+00	
373	2.201700e-05	2.572000e-01	2.583151e-01	2.471448e-01	2.460542e-01	1.877529e+00	
374	2.202000e-05	2.572319e-01	2.583498e-01	2.471789e-01	2.460856e-01	1.877559e+00	
375	2.202080e-05	2.572405e-01	2.583593e-01	2.471883e-01	2.460942e-01	1.877568e+00	
376	2.202240e-05	2.572575e-01	2.583782e-01	2.472069e-01	2.461118e-01	1.877584e+00	
377	2.202560e-05	2.572916e-01	2.584161e-01	2.472443e-01	2.461480e-01	1.877617e+00	
378	2.203200e-05	2.573599e-01	2.584919e-01	2.473190e-01	2.462222e-01	1.877683e+00	
379	2.204480e-05	2.574964e-01	2.586435e-01	2.474685e-01	2.463717e-01	1.877814e+00	
380	2.207040e-05	2.577693e-01	2.589471e-01	2.477676e-01	2.466706e-01	1.878077e+00	
381	2.212160e-05	2.583152e-01	2.595552e-01	2.483660e-01	2.472689e-01	1.878603e+00	
382	2.222400e-05	2.594071e-01	2.607723e-01	2.495641e-01	2.484668e-01	1.879654e+00	
383	2.241976e-05	2.614946e-01	2.630860e-01	2.518577e-01	2.507600e-01	1.881663e+00	
384	2.260566e-05	2.634772e-01	2.652519e-01	2.540357e-01	2.529377e-01	1.883571e+00	
385	2.287654e-05	2.663665e-01	2.683380e-01	2.571962e-01	2.560980e-01	1.886351e+00	
386	2.302000e-05	2.678970e-01	2.699390e-01	2.588595e-01	2.577614e-01	1.887823e+00	
387	2.302100e-05	2.679077e-01	2.699499e-01	2.588709e-01	2.577729e-01	1.887833e+00	
388	2.302300e-05	2.679290e-01	2.699715e-01	2.588932e-01	2.577959e-01	1.887854e+00	
389	2.302700e-05	2.679717e-01	2.700126e-01	2.589354e-01	2.578410e-01	1.887895e+00	
390	2.303000e-05	2.680037e-01	2.700417e-01	2.589650e-01	2.578733e-01	1.887926e+00	
391	2.303080e-05	2.680122e-01	2.700493e-01	2.589726e-01	2.578816e-01	1.887934e+00	
392	2.303240e-05	2.680293e-01	2.700644e-01	2.589879e-01	2.578980e-01	1.887950e+00	
393	2.303560e-05	2.680634e-01	2.700947e-01	2.590185e-01	2.579298e-01	1.887983e+00	
394	2.304200e-05	2.681317e-01	2.701553e-01	2.590797e-01	2.579915e-01	1.888049e+00	
395	2.305480e-05	2.682683e-01	2.702763e-01	2.592020e-01	2.581137e-01	1.888180e+00	
396	2.308040e-05	2.685414e-01	2.705180e-01	2.594466e-01	2.583583e-01	1.888443e+00	
397	2.313160e-05	2.690876e-01	2.710006e-01	2.599355e-01	2.588471e-01	1.888968e+00	
398	2.323400e-05	2.701802e-01	2.719651e-01	2.609122e-01	2.598238e-01	1.890018e+00	
399	2.340009e-05	2.719526e-01	2.735394e-01	2.624942e-01	2.614056e-01	1.891722e+00	
400	2.357950e-05	2.738676e-01	2.752674e-01	2.642035e-01	2.631146e-01	1.893561e+00	
401	2.383300e-05	2.765739e-01	2.777720e-01	2.666300e-01	2.655404e-01	1.896160e+00	
402	2.401000e-05	2.784638e-01	2.795655e-01	2.683380e-01	2.672476e-01	1.897975e+00	
403	2.401100e-05	2.784745e-01	2.795759e-01	2.683479e-01	2.672573e-01	1.897985e+00	
404	2.401300e-05	2.784959e-01	2.795970e-01	2.683681e-01	2.672768e-01	1.898005e+00	
405	2.401700e-05	2.785386e-01	2.796411e-01	2.684108e-01	2.673168e-01	1.898046e+00	
406	2.402000e-05	2.785706e-01	2.796759e-01	2.684450e-01	2.673482e-01	1.898077e+00	
407	2.402080e-05	2.785791e-01	2.796854e-01	2.684544e-01	2.673569e-01	1.898085e+00	
408	2.402240e-05	2.785962e-01	2.797044e-01	2.684731e-01	2.673745e-01	1.898102e+00	
409	2.402560e-05	2.786304e-01	2.797423e-01	2.685105e-01	2.674107e-01	1.898135e+00	
410	2.403200e-05	2.786988e-01	2.798182e-01	2.685853e-01	2.674850e-01	1.898200e+00	
411	2.404480e-05	2.788355e-01	2.799700e-01	2.687350e-01	2.676347e-01	1.898331e+00	
412	2.407040e-05	2.791088e-01	2.802740e-01	2.690345e-01	2.679341e-01	1.898594e+00	
413	2.412160e-05	2.796556e-01	2.808830e-01	2.696339e-01	2.685333e-01	1.899119e+00	
414	2.422400e-05	2.807493e-01	2.821018e-01	2.708338e-01	2.697329e-01	1.900168e+00	
415	2.441989e-05	2.828415e-01	2.844201e-01	2.731322e-01	2.720310e-01	1.902175e+00	
416	2.460583e-05	2.848276e-01	2.865894e-01	2.753139e-01	2.742124e-01	1.904080e+00	
417	2.487686e-05	2.877231e-01	2.896811e-01	2.784805e-01	2.773789e-01	1.906856e+00	
418	2.502000e-05	2.892525e-01	2.912806e-01	2.801425e-01	2.790409e-01	1.908322e+00	
419	2.502100e-05	2.892632e-01	2.912915e-01	2.801539e-01	2.790524e-01	1.908332e+00	
420	2.502300e-05	2.892846e-01	2.913131e-01	2.801762e-01	2.790755e-01	1.908352e+00	
421	2.502700e-05	2.893273e-01	2.913543e-01	2.802185e-01	2.791206e-01	1.908393e+00	
422	2.503000e-05	2.893594e-01	2.913835e-01	2.802481e-01	2.791530e-01	1.908424e+00	
423	2.503080e-05	2.893679e-01	2.913910e-01	2.802558e-01	2.791613e-01	1.908432e+00	
424	2.503240e-05	2.893850e-01	2.914062e-01	2.802711e-01	2.791777e-01	1.908449e+00	
425	2.503560e-05	2.894192e-01	2.914366e-01	2.803018e-01	2.792095e-01	1.908481e+00	
426	2.504200e-05	2.894876e-01	2.914972e-01	2.803630e-01	2.792714e-01	1.908547e+00	
427	2.505480e-05	2.896244e-01	2.916184e-01	2.804855e-01	2.793938e-01	1.908678e+00	
428	2.508040e-05	2.898979e-01	2.918605e-01	2.807305e-01	2.796388e-01	1.908940e+00	
429	2.513160e-05	2.904450e-01	2.923438e-01	2.812202e-01	2.801284e-01	1.909464e+00	
430	2.523400e-05	2.915393e-01	2.933098e-01	2.821985e-01	2.811067e-01	1.910513e+00	
431	2.540023e-05	2.933159e-01	2.948880e-01	2.837846e-01	2.826925e-01	1.912214e+00	
432	2.557971e-05	2.952344e-01	2.966194e-01	2.854973e-01	2.844049e-01	1.914051e+00	
433	2.583340e-05	2.979468e-01	2.991299e-01	2.879296e-01	2.868364e-01	1.916647e+00	
434	2.601000e-05	2.998352e-01	3.009222e-01	2.896365e-01	2.885427e-01	1.918454e+00	
435	2.601100e-05	2.998459e-01	3.009326e-01	2.896464e-01	2.885524e-01	1.918464e+00	
436	2.601300e-05	2.998673e-01	3.009538e-01	2.896666e-01	2.885719e-01	1.918484e+00	
437	2.601700e-05	2.999101e-01	3.009980e-01	2.897094e-01	2.886119e-01	1.918525e+00	
438	2.602000e-05	2.999422e-01	3.010328e-01	2.897437e-01	2.886434e-01	1.918556e+00	
439	2.602080e-05	2.999507e-01	3.010423e-01	2.897530e-01	2.886521e-01	1.918564e+00	
440	2.602240e-05	2.999678e-01	3.010613e-01	2.897718e-01	2.886697e-01	1.918580e+00	
441	2.602560e-05	3.000021e-01	3.010993e-01	2.898092e-01	2.887060e-01	1.918613e+00	
442	2.603200e-05	3.000705e-01	3.011752e-01	2.898842e-01	2.887804e-01	1.918679e+00	
443	2.604480e-05	3.002074e-01	3.013273e-01	2.900341e-01	2.889303e-01	1.918810e+00	
444	2.607040e-05	3.004812e-01	3.016317e-01	2.903340e-01	2.892301e-01	1.919071e+00	
445	2.612160e-05	3.010288e-01	3.022414e-01	2.909341e-01	2.898301e-01	1.919595e+00	
446	2.622400e-05	3.021240e-01	3.034618e-01	2.921356e-01	2.910313e-01	1.920642e+00	
447	2.642000e-05	3.042204e-01	3.057843e-01	2.944384e-01	2.933337e-01	1.922647e+00	
448	2.660599e-05	3.062098e-01	3.079566e-01	2.966234e-01	2.955184e-01	1.924548e+00	
449	2.687714e-05	3.091107e-01	3.110532e-01	2.997955e-01	2.986904e-01	1.927320e+00	
450	2.702000e-05	3.106393e-01	3.126513e-01	3.014563e-01	3.003512e-01	1.928780e+00	
451	2.702100e-05	3.106500e-01	3.126623e-01	3.014676e-01	3.003628e-01	1.928790e+00	
452	2.702300e-05	3.106714e-01	3.126838e-01	3.014900e-01	3.003859e-01	1.928810e+00	
453	2.702700e-05	3.107142e-01	3.127251e-01	3.015324e-01	3.004310e-01	1.928851e+00	
454	2.703000e-05	3.107463e-01	3.127543e-01	3.015621e-01	3.004635e-01	1.928882e+00	
455	2.703080e-05	3.107548e-01	3.127619e-01	3.015697e-01	3.004718e-01	1.928890e+00	
456	2.703240e-05	3.107719e-01	3.127771e-01	3.015851e-01	3.004882e-01	1.928906e+00	
457	2.703560e-05	3.108062e-01	3.128075e-01	3.016158e-01	3.005201e-01	1.928939e+00	
458	2.704200e-05	3.108746e-01	3.128682e-01	3.016771e-01	3.005820e-01	1.929004e+00	
459	2.705480e-05	3.110116e-01	3.129896e-01	3.017998e-01	3.007046e-01	1.929135e+00	
460	2.708040e-05	3.112855e-01	3.132320e-01	3.020452e-01	3.009500e-01	1.929397e+00	
461	2.713160e-05	3.118334e-01	3.137160e-01	3.025356e-01	3.014404e-01	1.929920e+00	
462	2.723400e-05	3.129291e-01	3.146834e-01	3.035154e-01	3.024200e-01	1.930966e+00	
463	2.740036e-05	3.147095e-01	3.162650e-01	3.051049e-01	3.040094e-01	1.932665e+00	
464	2.757990e-05	3.166313e-01	3.179994e-01	3.068208e-01	3.057249e-01	1.934499e+00	
465	2.783375e-05	3.193490e-01	3.205152e-01	3.092582e-01	3.081616e-01	1.937091e+00	
466	2.801000e-05	3.212361e-01	3.223064e-01	3.109641e-01	3.098669e-01	1.938890e+00	
467	2.801100e-05	3.212468e-01	3.223169e-01	3.109740e-01	3.098766e-01	1.938900e+00	
468	2.801300e-05	3.212682e-01	3.223381e-01	3.109943e-01	3.098961e-01	1.938921e+00	
469	2.801700e-05	3.213110e-01	3.223823e-01	3.110372e-01	3.099362e-01	1.938962e+00	
470	2.802000e-05	3.213432e-01	3.224172e-01	3.110714e-01	3.099677e-01	1.938992e+00	
471	2.802080e-05	3.213517e-01	3.224267e-01	3.110808e-01	3.099764e-01	1.939000e+00	
472	2.802240e-05	3.213689e-01	3.224457e-01	3.110996e-01	3.099940e-01	1.939017e+00	
473	2.802560e-05	3.214031e-01	3.224837e-01	3.111371e-01	3.100304e-01	1.939049e+00	
474	2.803200e-05	3.214717e-01	3.225598e-01	3.112121e-01	3.101048e-01	1.939115e+00	
475	2.804480e-05	3.216087e-01	3.227120e-01	3.113622e-01	3.102550e-01	1.939245e+00	
476	2.807040e-05	3.218829e-01	3.230167e-01	3.116625e-01	3.105551e-01	1.939507e+00	
477	2.812160e-05	3.224312e-01	3.236271e-01	3.122633e-01	3.111558e-01	1.940029e+00	
478	2.822400e-05	3.235278e-01	3.248489e-01	3.134662e-01	3.123585e-01	1.941074e+00	
479	2.842010e-05	3.256280e-01	3.271751e-01	3.157729e-01	3.146647e-01	1.943075e+00	
480	2.860612e-05	3.276203e-01	3.293500e-01	3.179608e-01	3.168523e-01	1.944973e+00	
481	2.887738e-05	3.305259e-01	3.324509e-01	3.211377e-01	3.200292e-01	1.947739e+00	
482	2.902000e-05	3.320537e-01	3.340478e-01	3.227975e-01	3.216889e-01	1.949193e+00	
483	2.902100e-05	3.320644e-01	3.340588e-01	3.228089e-01	3.217005e-01	1.949204e+00	
484	2.902300e-05	3.320858e-01	3.340804e-01	3.228313e-01	3.217236e-01	1.949224e+00	
485	2.902700e-05	3.321287e-01	3.341217e-01	3.228737e-01	3.217689e-01	1.949265e+00	
486	2.903000e-05	3.321608e-01	3.341509e-01	3.229034e-01	3.218013e-01	1.949295e+00	
487	2.903080e-05	3.321694e-01	3.341586e-01	3.229111e-01	3.218097e-01	1.949304e+00	
488	2.903240e-05	3.321865e-01	3.341738e-01	3.229264e-01	3.218261e-01	1.949320e+00	
489	2.903560e-05	3.322208e-01	3.342042e-01	3.229572e-01	3.218580e-01	1.949352e+00	
490	2.904200e-05	3.322894e-01	3.342650e-01	3.230186e-01	3.219200e-01	1.949418e+00	
491	2.905480e-05	3.324265e-01	3.343865e-01	3.231415e-01	3.220428e-01	1.949548e+00	
492	2.908040e-05	3.327008e-01	3.346292e-01	3.233871e-01	3.222885e-01	1.949809e+00	
493	2.913160e-05	3.332493e-01	3.351138e-01	3.238782e-01	3.227795e-01	1.950331e+00	
494	2.923400e-05	3.343463e-01	3.360824e-01	3.248592e-01	3.237605e-01	1.951375e+00	
495	2.940047e-05	3.361301e-01	3.376670e-01	3.264520e-01	3.253530e-01	1.953072e+00	
496	2.958006e-05	3.380546e-01	3.394041e-01	3.281705e-01	3.270712e-01	1.954902e+00	
497	2.983406e-05	3.407770e-01	3.419244e-01	3.306124e-01	3.295123e-01	1.957489e+00	
498	3.001000e-05	3.426630e-01	3.437148e-01	3.323175e-01	3.312168e-01	1.959281e+00	
499	3.001100e-05	3.426737e-01	3.437253e-01	3.323274e-01	3.312265e-01	1.959291e+00	
500	3.001300e-05	3.426952e-01	3.437465e-01	3.323477e-01	3.312461e-01	1.959312e+00	
501	3.001700e-05	3.427381e-01	3.437908e-01	3.323907e-01	3.312862e-01	1.959352e+00	
502	3.002000e-05	3.427702e-01	3.438257e-01	3.324250e-01	3.313177e-01	1.959383e+00	
503	3.002080e-05	3.427788e-01	3.438352e-01	3.324343e-01	3.313265e-01	1.959391e+00	
504	3.002240e-05	3.427959e-01	3.438542e-01	3.324531e-01	3.313441e-01	1.959407e+00	
505	3.002560e-05	3.428303e-01	3.438923e-01	3.324907e-01	3.313805e-01	1.959440e+00	
506	3.003200e-05	3.428989e-01	3.439684e-01	3.325658e-01	3.314551e-01	1.959505e+00	
507	3.004480e-05	3.430361e-01	3.441207e-01	3.327160e-01	3.316053e-01	1.959635e+00	
508	3.007040e-05	3.433105e-01	3.444258e-01	3.330166e-01	3.319058e-01	1.959896e+00	
509	3.012160e-05	3.438595e-01	3.450368e-01	3.336180e-01	3.325071e-01	1.960417e+00	
510	3.022400e-05	3.449573e-01	3.462597e-01	3.348222e-01	3.337110e-01	1.961460e+00	
511	3.042019e-05	3.470607e-01	3.485891e-01	3.371323e-01	3.360206e-01	1.963457e+00	
512	3.060623e-05	3.490555e-01	3.507664e-01	3.393227e-01	3.382108e-01	1.965351e+00	
513	3.087758e-05	3.519651e-01	3.538708e-01	3.425037e-01	3.413917e-01	1.968111e+00	
514	3.102000e-05	3.534925e-01	3.554668e-01	3.441627e-01	3.430508e-01	1.969560e+00	
515	3.102100e-05	3.535032e-01	3.554778e-01	3.441741e-01	3.430624e-01	1.969570e+00	
516	3.102300e-05	3.535246e-01	3.554994e-01	3.441966e-01	3.430855e-01	1.969591e+00	
517	3.102700e-05	3.535675e-01	3.555407e-01	3.442390e-01	3.431307e-01	1.969631e+00	
518	3.103000e-05	3.535997e-01	3.555700e-01	3.442688e-01	3.431633e-01	1.969662e+00	
519	3.103080e-05	3.536083e-01	3.555776e-01	3.442764e-01	3.431716e-01	1.969670e+00	
520	3.103240e-05	3.536254e-01	3.555928e-01	3.442918e-01	3.431881e-01	1.969686e+00	
521	3.103560e-05	3.536598e-01	3.556233e-01	3.443226e-01	3.432200e-01	1.969719e+00	
522	3.104200e-05	3.537284e-01	3.556842e-01	3.443841e-01	3.432821e-01	1.969784e+00	
523	3.105480e-05	3.538657e-01	3.558058e-01	3.445071e-01	3.434050e-01	1.969914e+00	
524	3.108040e-05	3.541402e-01	3.560488e-01	3.447531e-01	3.436510e-01	1.970174e+00	
525	3.113160e-05	3.546893e-01	3.565338e-01	3.452447e-01	3.441425e-01	1.970695e+00	
526	3.123400e-05	3.557875e-01	3.575034e-01	3.462268e-01	3.451246e-01	1.971736e+00	
527	3.140057e-05	3.575742e-01	3.590906e-01	3.478223e-01	3.467198e-01	1.973430e+00	
528	3.158020e-05	3.595011e-01	3.608300e-01	3.495431e-01	3.484403e-01	1.975256e+00	
529	3.183431e-05	3.622274e-01	3.633542e-01	3.519888e-01	3.508853e-01	1.977838e+00	
530	3.201000e-05	3.641125e-01	3.651439e-01	3.536933e-01	3.525891e-01	1.979623e+00	
531	3.201100e-05	3.641233e-01	3.651544e-01	3.537032e-01	3.525989e-01	1.979633e+00	
532	3.201300e-05	3.641447e-01	3.651756e-01	3.537235e-01	3.526185e-01	1.979654e+00	
533	3.201700e-05	3.641876e-01	3.652199e-01	3.537665e-01	3.526586e-01	1.979694e+00	
534	3.202000e-05	3.642198e-01	3.652549e-01	3.538008e-01	3.526902e-01	1.979725e+00	
535	3.202080e-05	3.642284e-01	3.652644e-01	3.538102e-01	3.526989e-01	1.979733e+00	
536	3.202240e-05	3.642456e-01	3.652834e-01	3.538290e-01	3.527166e-01	1.979749e+00	
537	3.202560e-05	3.642799e-01	3.653215e-01	3.538666e-01	3.527530e-01	1.979782e+00	
538	3.203200e-05	3.643486e-01	3.653977e-01	3.539418e-01	3.528276e-01	1.979847e+00	
539	3.204480e-05	3.644860e-01	3.655502e-01	3.540922e-01	3.529780e-01	1.979977e+00	
540	3.207040e-05	3.647607e-01	3.658555e-01	3.543930e-01	3.532788e-01	1.980237e+00	
541	3.212160e-05	3.653101e-01	3.664670e-01	3.549950e-01	3.538806e-01	1.980757e+00	
542	3.222400e-05	3.664090e-01	3.676909e-01	3.562002e-01	3.550856e-01	1.981797e+00	
543	3.242026e-05	3.685152e-01	3.700230e-01	3.585132e-01	3.573981e-01	1.983789e+00	
544	3.260633e-05	3.705121e-01	3.722021e-01	3.607057e-01	3.595903e-01	1.985678e+00	
545	3.287774e-05	3.734251e-01	3.753094e-01	3.638901e-01	3.627747e-01	1.988433e+00	
546	3.302000e-05	3.749521e-01	3.769048e-01	3.655486e-01	3.644332e-01	1.989876e+00	
547	3.302100e-05	3.749628e-01	3.769157e-01	3.655601e-01	3.644448e-01	1.989886e+00	
548	3.302300e-05	3.749843e-01	3.769374e-01	3.655825e-01	3.644680e-01	1.989907e+00	
549	3.302700e-05	3.750272e-01	3.769787e-01	3.656250e-01	3.645133e-01	1.989947e+00	
550	3.303000e-05	3.750594e-01	3.770080e-01	3.656548e-01	3.645458e-01	1.989978e+00	
551	3.303080e-05	3.750680e-01	3.770157e-01	3.656625e-01	3.645542e-01	1.989986e+00	
552	3.303240e-05	3.750852e-01	3.770309e-01	3.656779e-01	3.645707e-01	1.990002e+00	
553	3.303560e-05	3.751195e-01	3.770614e-01	3.657086e-01	3.646026e-01	1.990034e+00	
554	3.304200e-05	3.751882e-01	3.771223e-01	3.657702e-01	3.646647e-01	1.990099e+00	
555	3.305480e-05	3.753256e-01	3.772440e-01	3.658933e-01	3.647878e-01	1.990229e+00	
556	3.308040e-05	3.756004e-01	3.774872e-01	3.661395e-01	3.650340e-01	1.990489e+00	
557	3.313160e-05	3.761500e-01	3.779727e-01	3.666316e-01	3.655260e-01	1.991008e+00	
558	3.323400e-05	3.772491e-01	3.789431e-01	3.676147e-01	3.665090e-01	1.992047e+00	
559	3.340065e-05	3.790382e-01	3.805324e-01	3.692124e-01	3.681065e-01	1.993737e+00	
560	3.358031e-05	3.809671e-01	3.822736e-01	3.709351e-01	3.698289e-01	1.995558e+00	
561	3.383452e-05	3.836968e-01	3.848011e-01	3.733840e-01	3.722770e-01	1.998135e+00	
562	3.401000e-05	3.855812e-01	3.865903e-01	3.750880e-01	3.739804e-01	1.999913e+00	
563	3.401100e-05	3.855919e-01	3.866007e-01	3.750980e-01	3.739902e-01	1.999923e+00	
564	3.401300e-05	3.856134e-01	3.866220e-01	3.751183e-01	3.740098e-01	1.999943e+00	
565	3.401700e-05	3.856564e-01	3.866664e-01	3.751613e-01	3.740500e-01	1.999984e+00	
566	3.402000e-05	3.856886e-01	3.867013e-01	3.751957e-01	3.740816e-01	2.000014e+00	
567	3.402080e-05	3.856972e-01	3.867109e-01	3.752051e-01	3.740903e-01	2.000022e+00	
568	3.402240e-05	3.857144e-01	3.867299e-01	3.752239e-01	3.741080e-01	2.000039e+00	
569	3.402560e-05	3.857487e-01	3.867680e-01	3.752615e-01	3.741444e-01	2.000071e+00	
570	3.403200e-05	3.858175e-01	3.868443e-01	3.753367e-01	3.742191e-01	2.000136e+00	
571	3.404480e-05	3.859549e-01	3.869968e-01	3.754872e-01	3.743696e-01	2.000266e+00	
572	3.407040e-05	3.862299e-01	3.873023e-01	3.757883e-01	3.746706e-01	2.000525e+00	
573	3.412160e-05	3.867798e-01	3.879143e-01	3.763907e-01	3.752729e-01	2.001044e+00	
574	3.422400e-05	3.878795e-01	3.891391e-01	3.775969e-01	3.764788e-01	2.002081e+00	
575	3.442032e-05	3.899880e-01	3.914734e-01	3.799122e-01	3.787937e-01	2.004069e+00	
576	3.460640e-05	3.919865e-01	3.936539e-01	3.821064e-01	3.809876e-01	2.005953e+00	
577	3.487785e-05	3.949022e-01	3.967634e-01	3.852936e-01	3.841746e-01	2.008700e+00	
578	3.502000e-05	3.964291e-01	3.983583e-01	3.869518e-01	3.858329e-01	2.010139e+00	
579	3.502100e-05	3.964398e-01	3.983693e-01	3.869632e-01	3.858446e-01	2.010149e+00	
580	3.502300e-05	3.964613e-01	3.983909e-01	3.869857e-01	3.858677e-01	2.010169e+00	
581	3.502700e-05	3.965043e-01	3.984323e-01	3.870282e-01	3.859131e-01	2.010210e+00	
582	3.503000e-05	3.965365e-01	3.984616e-01	3.870580e-01	3.859456e-01	2.010240e+00	
583	3.503080e-05	3.965451e-01	3.984692e-01	3.870657e-01	3.859540e-01	2.010248e+00	
584	3.503240e-05	3.965623e-01	3.984845e-01	3.870811e-01	3.859705e-01	2.010264e+00	
585	3.503560e-05	3.965967e-01	3.985150e-01	3.871119e-01	3.860025e-01	2.010297e+00	
586	3.504200e-05	3.966654e-01	3.985760e-01	3.871735e-01	3.860646e-01	2.010361e+00	
587	3.505480e-05	3.968029e-01	3.986978e-01	3.872968e-01	3.861878e-01	2.010491e+00	
588	3.508040e-05	3.970779e-01	3.989411e-01	3.875432e-01	3.864342e-01	2.010750e+00	
589	3.513160e-05	3.976278e-01	3.994269e-01	3.880356e-01	3.869266e-01	2.011268e+00	
590	3.523400e-05	3.987278e-01	4.003980e-01	3.890195e-01	3.879103e-01	2.012303e+00	
591	3.540072e-05	4.005188e-01	4.019890e-01	3.906190e-01	3.895097e-01	2.013989e+00	
592	3.558040e-05	4.024494e-01	4.037317e-01	3.923432e-01	3.912336e-01	2.015806e+00	
593	3.583467e-05	4.051816e-01	4.062616e-01	3.947945e-01	3.936841e-01	2.018376e+00	
594	3.601000e-05	4.070655e-01	4.080505e-01	3.964984e-01	3.953873e-01	2.020148e+00	
595	3.601100e-05	4.070763e-01	4.080610e-01	3.965083e-01	3.953971e-01	2.020158e+00	
596	3.601300e-05	4.070978e-01	4.080823e-01	3.965286e-01	3.954167e-01	2.020178e+00	
597	3.601700e-05	4.071408e-01	4.081267e-01	3.965717e-01	3.954569e-01	2.020219e+00	
598	3.602000e-05	4.071730e-01	4.081617e-01	3.966061e-01	3.954885e-01	2.020249e+00	
599	3.602080e-05	4.071816e-01	4.081712e-01	3.966155e-01	3.954972e-01	2.020257e+00	
600	3.602240e-05	4.071988e-01	4.081903e-01	3.966343e-01	3.955150e-01	2.020273e+00	
601	3.602560e-05	4.072332e-01	4.082284e-01	3.966719e-01	3.955514e-01	2.020305e+00	
602	3.603200e-05	4.073020e-01	4.083047e-01	3.967472e-01	3.956261e-01	2.020370e+00	
603	3.604480e-05	4.074395e-01	4.084573e-01	3.968978e-01	3.957768e-01	2.020499e+00	
604	3.607040e-05	4.077146e-01	4.087630e-01	3.971990e-01	3.960779e-01	2.020758e+00	
605	3.612160e-05	4.082649e-01	4.093753e-01	3.978018e-01	3.966806e-01	2.021275e+00	
606	3.622400e-05	4.093654e-01	4.106007e-01	3.990087e-01	3.978871e-01	2.022309e+00	
607	3.642036e-05	4.114756e-01	4.129367e-01	4.013259e-01	4.002039e-01	2.024292e+00	
608	3.660645e-05	4.134754e-01	4.151183e-01	4.035214e-01	4.023992e-01	2.026171e+00	
609	3.687792e-05	4.163931e-01	4.182293e-01	4.067106e-01	4.055882e-01	2.028911e+00	
610	3.702000e-05	4.179201e-01	4.198240e-01	4.083688e-01	4.072465e-01	2.030344e+00	
611	3.702100e-05	4.179308e-01	4.198350e-01	4.083802e-01	4.072581e-01	2.030354e+00	
612	3.702300e-05	4.179523e-01	4.198566e-01	4.084027e-01	4.072813e-01	2.030375e+00	
613	3.702700e-05	4.179953e-01	4.198980e-01	4.084453e-01	4.073267e-01	2.030415e+00	
614	3.703000e-05	4.180275e-01	4.199274e-01	4.084751e-01	4.073592e-01	2.030445e+00	
615	3.703080e-05	4.180361e-01	4.199350e-01	4.084828e-01	4.073676e-01	2.030453e+00	
616	3.703240e-05	4.180533e-01	4.199502e-01	4.084982e-01	4.073841e-01	2.030469e+00	
617	3.703560e-05	4.180877e-01	4.199808e-01	4.085290e-01	4.074161e-01	2.030502e+00	
618	3.704200e-05	4.181565e-01	4.200418e-01	4.085907e-01	4.074783e-01	2.030566e+00	
619	3.705480e-05	4.182941e-01	4.201636e-01	4.087140e-01	4.076015e-01	2.030695e+00	
620	3.708040e-05	4.185692e-01	4.204071e-01	4.089605e-01	4.078481e-01	2.030954e+00	
621	3.713160e-05	4.191195e-01	4.208932e-01	4.094533e-01	4.083408e-01	2.031470e+00	
622	3.723400e-05	4.202201e-01	4.218647e-01	4.104377e-01	4.093251e-01	2.032503e+00	
623	3.740076e-05	4.220126e-01	4.234570e-01	4.120386e-01	4.109258e-01	2.034184e+00	
624	3.758046e-05	4.239443e-01	4.252007e-01	4.137640e-01	4.126509e-01	2.035996e+00	
625	3.783478e-05	4.266784e-01	4.277324e-01	4.162171e-01	4.151032e-01	2.038559e+00	
626	3.801000e-05	4.285621e-01	4.295212e-01	4.179208e-01	4.168063e-01	2.040324e+00	
627	3.801100e-05	4.285729e-01	4.295317e-01	4.179308e-01	4.168161e-01	2.040334e+00	
628	3.801300e-05	4.285944e-01	4.295530e-01	4.179511e-01	4.168357e-01	2.040354e+00	
629	3.801700e-05	4.286374e-01	4.295974e-01	4.179942e-01	4.168760e-01	2.040395e+00	
630	3.802000e-05	4.286696e-01	4.296324e-01	4.180286e-01	4.169076e-01	2.040425e+00	
631	3.802080e-05	4.286782e-01	4.296420e-01	4.180380e-01	4.169163e-01	2.040433e+00	
632	3.802240e-05	4.286954e-01	4.296610e-01	4.180568e-01	4.169341e-01	2.040449e+00	
633	3.802560e-05	4.287298e-01	4.296992e-01	4.180945e-01	4.169705e-01	2.040481e+00	
634	3.803200e-05	4.287987e-01	4.297755e-01	4.181698e-01	4.170453e-01	2.040546e+00	
635	3.804480e-05	4.289363e-01	4.299282e-01	4.183204e-01	4.171960e-01	2.040675e+00	
636	3.807040e-05	4.292115e-01	4.302340e-01	4.186218e-01	4.174973e-01	2.040932e+00	
637	3.812160e-05	4.297620e-01	4.308465e-01	4.192249e-01	4.181002e-01	2.041448e+00	
638	3.822400e-05	4.308630e-01	4.320724e-01	4.204323e-01	4.193073e-01	2.042479e+00	
639	3.842039e-05	4.329746e-01	4.344096e-01	4.227509e-01	4.216255e-01	2.044457e+00	
640	3.860648e-05	4.349753e-01	4.365919e-01	4.249473e-01	4.238216e-01	2.046330e+00	
641	3.887796e-05	4.378942e-01	4.397038e-01	4.281377e-01	4.270119e-01	2.049061e+00	
642	3.902000e-05	4.394215e-01	4.412984e-01	4.297962e-01	4.286705e-01	2.050490e+00	
643	3.902100e-05	4.394322e-01	4.413094e-01	4.298076e-01	4.286821e-01	2.050500e+00	
644	3.902300e-05	4.394537e-01	4.413310e-01	4.298301e-01	4.287053e-01	2.050520e+00	
645	3.902700e-05	4.394968e-01	4.413724e-01	4.298727e-01	4.287507e-01	2.050560e+00	
646	3.903000e-05	4.395290e-01	4.414018e-01	4.299025e-01	4.287833e-01	2.050590e+00	
647	3.903080e-05	4.395376e-01	4.414094e-01	4.299102e-01	4.287916e-01	2.050598e+00	
648	3.903240e-05	4.395548e-01	4.414247e-01	4.299256e-01	4.288081e-01	2.050615e+00	
649	3.903560e-05	4.395892e-01	4.414552e-01	4.299565e-01	4.288402e-01	2.050647e+00	
650	3.904200e-05	4.396580e-01	4.415162e-01	4.300182e-01	4.289024e-01	2.050711e+00	
651	3.905480e-05	4.397957e-01	4.416382e-01	4.301415e-01	4.290257e-01	2.050840e+00	
652	3.908040e-05	4.400709e-01	4.418817e-01	4.303882e-01	4.292723e-01	2.051097e+00	
653	3.913160e-05	4.406214e-01	4.423679e-01	4.308811e-01	4.297652e-01	2.051612e+00	
654	3.923400e-05	4.417224e-01	4.433397e-01	4.318659e-01	4.307500e-01	2.052642e+00	
655	3.940080e-05	4.435160e-01	4.449329e-01	4.334678e-01	4.323516e-01	2.054318e+00	
656	3.958050e-05	4.454485e-01	4.466773e-01	4.351939e-01	4.340774e-01	2.056124e+00	
657	3.983484e-05	4.481837e-01	4.492101e-01	4.376482e-01	4.365309e-01	2.058680e+00	
658	4.001000e-05	4.500675e-01	4.509990e-01	4.393520e-01	4.382341e-01	2.060439e+00	
659	4.001100e-05	4.500782e-01	4.510095e-01	4.393620e-01	4.382438e-01	2.060449e+00	
660	4.001300e-05	4.500997e-01	4.510307e-01	4.393823e-01	4.382635e-01	2.060469e+00	
661	4.001700e-05	4.501427e-01	4.510752e-01	4.394254e-01	4.383037e-01	2.060509e+00	
662	4.002000e-05	4.501750e-01	4.511102e-01	4.394598e-01	4.383354e-01	2.060539e+00	
663	4.002080e-05	4.501836e-01	4.511197e-01	4.394692e-01	4.383441e-01	2.060547e+00	
664	4.002240e-05	4.502008e-01	4.511388e-01	4.394880e-01	4.383619e-01	2.060563e+00	
665	4.002560e-05	4.502352e-01	4.511769e-01	4.395257e-01	4.383983e-01	2.060595e+00	
666	4.003200e-05	4.503041e-01	4.512533e-01	4.396010e-01	4.384731e-01	2.060660e+00	
667	4.004480e-05	4.504417e-01	4.514060e-01	4.397517e-01	4.386238e-01	2.060788e+00	
668	4.007040e-05	4.507171e-01	4.517119e-01	4.400532e-01	4.389252e-01	2.061045e+00	
669	4.012160e-05	4.512678e-01	4.523246e-01	4.406565e-01	4.395284e-01	2.061559e+00	
670	4.022400e-05	4.523691e-01	4.535508e-01	4.418642e-01	4.407358e-01	2.062587e+00	
671	4.042041e-05	4.544815e-01	4.558887e-01	4.441837e-01	4.430549e-01	2.064558e+00	
672	4.060648e-05	4.564827e-01	4.580712e-01	4.463806e-01	4.452515e-01	2.066425e+00	
673	4.087795e-05	4.594021e-01	4.611832e-01	4.495716e-01	4.484424e-01	2.069148e+00	
674	4.102000e-05	4.609299e-01	4.627781e-01	4.512306e-01	4.501015e-01	2.070572e+00	
675	4.102100e-05	4.609407e-01	4.627891e-01	4.512420e-01	4.501131e-01	2.070582e+00	
676	4.102300e-05	4.609622e-01	4.628108e-01	4.512645e-01	4.501363e-01	2.070602e+00	
677	4.102700e-05	4.610052e-01	4.628522e-01	4.513071e-01	4.501817e-01	2.070642e+00	
678	4.103000e-05	4.610375e-01	4.628815e-01	4.513369e-01	4.502143e-01	2.070672e+00	
679	4.103080e-05	4.610461e-01	4.628892e-01	4.513446e-01	4.502226e-01	2.070680e+00	
680	4.103240e-05	4.610633e-01	4.629044e-01	4.513601e-01	4.502391e-01	2.070697e+00	
681	4.103560e-05	4.610977e-01	4.629350e-01	4.513909e-01	4.502712e-01	2.070729e+00	
682	4.104200e-05	4.611665e-01	4.629960e-01	4.514526e-01	4.503334e-01	2.070793e+00	
683	4.105480e-05	4.613042e-01	4.631179e-01	4.515760e-01	4.504567e-01	2.070921e+00	
684	4.108040e-05	4.615795e-01	4.633615e-01	4.518227e-01	4.507034e-01	2.071178e+00	
685	4.113160e-05	4.621301e-01	4.638478e-01	4.523158e-01	4.511965e-01	2.071691e+00	
686	4.123400e-05	4.632314e-01	4.648197e-01	4.533008e-01	4.521814e-01	2.072717e+00	
687	4.140081e-05	4.650255e-01	4.664132e-01	4.549032e-01	4.537836e-01	2.074389e+00	
688	4.158051e-05	4.669584e-01	4.681579e-01	4.566297e-01	4.555098e-01	2.076189e+00	
689	4.183485e-05	4.696941e-01	4.706912e-01	4.590844e-01	4.579637e-01	2.078735e+00	
690	4.201000e-05	4.715781e-01	4.724803e-01	4.607885e-01	4.596671e-01	2.080489e+00	
691	4.201100e-05	4.715889e-01	4.724908e-01	4.607984e-01	4.596769e-01	2.080499e+00	
692	4.201300e-05	4.716104e-01	4.725120e-01	4.608188e-01	4.596965e-01	2.080519e+00	
693	4.201700e-05	4.716534e-01	4.725565e-01	4.608619e-01	4.597368e-01	2.080559e+00	
694	4.202000e-05	4.716857e-01	4.725915e-01	4.608963e-01	4.597684e-01	2.080589e+00	
695	4.202080e-05	4.716943e-01	4.726011e-01	4.609057e-01	4.597772e-01	2.080597e+00	
696	4.202240e-05	4.717115e-01	4.726201e-01	4.609245e-01	4.597949e-01	2.080613e+00	
697	4.202560e-05	4.717459e-01	4.726583e-01	4.609622e-01	4.598314e-01	2.080645e+00	
698	4.203200e-05	4.718148e-01	4.727346e-01	4.610376e-01	4.599062e-01	2.080709e+00	
699	4.204480e-05	4.719525e-01	4.728874e-01	4.611883e-01	4.600570e-01	2.080837e+00	
700	4.207040e-05	4.722278e-01	4.731933e-01	4.614898e-01	4.603584e-01	2.081093e+00	
701	4.212160e-05	4.727786e-01	4.738061e-01	4.620932e-01	4.609616e-01	2.081605e+00	
702	4.222400e-05	4.738801e-01	4.750324e-01	4.633011e-01	4.621693e-01	2.082630e+00	
703	4.242041e-05	4.759928e-01	4.773705e-01	4.656210e-01	4.644887e-01	2.084595e+00	
704	4.260647e-05	4.779941e-01	4.795529e-01	4.678180e-01	4.666855e-01	2.086455e+00	
705	4.287789e-05	4.809135e-01	4.826644e-01	4.710089e-01	4.698762e-01	2.089168e+00	
706	4.302000e-05	4.824419e-01	4.842597e-01	4.726686e-01	4.715360e-01	2.090588e+00	
707	4.302100e-05	4.824527e-01	4.842707e-01	4.726800e-01	4.715476e-01	2.090598e+00	
708	4.302300e-05	4.824742e-01	4.842924e-01	4.727025e-01	4.715708e-01	2.090618e+00	
709	4.302700e-05	4.825172e-01	4.843338e-01	4.727451e-01	4.716162e-01	2.090658e+00	
710	4.303000e-05	4.825495e-01	4.843631e-01	4.727749e-01	4.716488e-01	2.090688e+00	
711	4.303080e-05	4.825581e-01	4.843708e-01	4.727826e-01	4.716572e-01	2.090696e+00	
712	4.303240e-05	4.825753e-01	4.843860e-01	4.727980e-01	4.716737e-01	2.090712e+00	
713	4.303560e-05	4.826097e-01	4.844166e-01	4.728289e-01	4.717057e-01	2.090744e+00	
714	4.304200e-05	4.826786e-01	4.844776e-01	4.728906e-01	4.717680e-01	2.090808e+00	
715	4.305480e-05	4.828162e-01	4.845995e-01	4.730140e-01	4.718913e-01	2.090936e+00	
716	4.308040e-05	4.830916e-01	4.848431e-01	4.732607e-01	4.721380e-01	2.091192e+00	
717	4.313160e-05	4.836422e-01	4.853293e-01	4.737538e-01	4.726311e-01	2.091703e+00	
718	4.323400e-05	4.847436e-01	4.863012e-01	4.747389e-01	4.736161e-01	2.092726e+00	
719	4.340081e-05	4.865378e-01	4.878947e-01	4.763414e-01	4.752184e-01	2.094391e+00	
720	4.358050e-05	4.884707e-01	4.896392e-01	4.780678e-01	4.769445e-01	2.096185e+00	
721	4.383481e-05	4.912061e-01	4.921722e-01	4.805223e-01	4.793982e-01	2.098723e+00	
722	4.401000e-05	4.930906e-01	4.939618e-01	4.822268e-01	4.811021e-01	2.100470e+00	
723	4.401100e-05	4.931013e-01	4.939723e-01	4.822368e-01	4.811119e-01	2.100480e+00	
724	4.401300e-05	4.931229e-01	4.939935e-01	4.822571e-01	4.811315e-01	2.100500e+00	
725	4.401700e-05	4.931659e-01	4.940380e-01	4.823002e-01	4.811718e-01	2.100540e+00	
726	4.402000e-05	4.931982e-01	4.940730e-01	4.823346e-01	4.812034e-01	2.100570e+00	
727	4.402080e-05	4.932068e-01	4.940826e-01	4.823441e-01	4.812122e-01	2.100578e+00	
728	4.402240e-05	4.932240e-01	4.941016e-01	4.823629e-01	4.812299e-01	2.100594e+00	
729	4.402560e-05	4.932584e-01	4.941398e-01	4.824006e-01	4.812664e-01	2.100626e+00	
730	4.403200e-05	4.933272e-01	4.942161e-01	4.824759e-01	4.813412e-01	2.100690e+00	
731	4.404480e-05	4.934649e-01	4.943689e-01	4.826267e-01	4.814919e-01	2.100817e+00	
732	4.407040e-05	4.937403e-01	4.946748e-01	4.829282e-01	4.817934e-01	2.101073e+00	
733	4.412160e-05	4.942911e-01	4.952875e-01	4.835316e-01	4.823966e-01	2.101583e+00	
734	4.422400e-05	4.953926e-01	4.965138e-01	4.847395e-01	4.836043e-01	2.102604e+00	
735	4.442040e-05	4.975051e-01	4.988516e-01	4.870592e-01	4.859236e-01	2.104562e+00	
736	4.460644e-05	4.995061e-01	5.010334e-01	4.892560e-01	4.881200e-01	2.106416e+00	
737	4.487780e-05	5.024247e-01	5.041437e-01	4.924460e-01	4.913100e-01	2.109119e+00	
738	4.502000e-05	5.039540e-01	5.057398e-01	4.941067e-01	4.929707e-01	2.110534e+00	
739	4.502100e-05	5.039648e-01	5.057507e-01	4.941181e-01	4.929823e-01	2.110544e+00	
740	4.502300e-05	5.039863e-01	5.057724e-01	4.941406e-01	4.930055e-01	2.110564e+00	
741	4.502700e-05	5.040293e-01	5.058138e-01	4.941832e-01	4.930509e-01	2.110604e+00	
742	4.503000e-05	5.040616e-01	5.058431e-01	4.942130e-01	4.930835e-01	2.110634e+00	
743	4.503080e-05	5.040702e-01	5.058508e-01	4.942207e-01	4.930919e-01	2.110642e+00	
744	4.503240e-05	5.040874e-01	5.058660e-01	4.942361e-01	4.931084e-01	2.110658e+00	
745	4.503560e-05	5.041218e-01	5.058966e-01	4.942670e-01	4.931404e-01	2.110690e+00	
746	4.504200e-05	5.041906e-01	5.059576e-01	4.943287e-01	4.932027e-01	2.110753e+00	
747	4.505480e-05	5.043283e-01	5.060795e-01	4.944521e-01	4.933260e-01	2.110881e+00	
748	4.508040e-05	5.046036e-01	5.063230e-01	4.946988e-01	4.935727e-01	2.111136e+00	
749	4.513160e-05	5.051542e-01	5.068091e-01	4.951919e-01	4.940657e-01	2.111645e+00	
750	4.523400e-05	5.062555e-01	5.077808e-01	4.961768e-01	4.950506e-01	2.112664e+00	
751	4.540079e-05	5.080493e-01	5.093738e-01	4.977789e-01	4.966525e-01	2.114324e+00	
752	4.558047e-05	5.099818e-01	5.111178e-01	4.995049e-01	4.983782e-01	2.116111e+00	
753	4.583472e-05	5.127163e-01	5.136498e-01	5.019585e-01	5.008310e-01	2.118639e+00	
754	4.601000e-05	5.146015e-01	5.154400e-01	5.036636e-01	5.025355e-01	2.120381e+00	
755	4.601100e-05	5.146122e-01	5.154505e-01	5.036736e-01	5.025453e-01	2.120391e+00	
756	4.601300e-05	5.146337e-01	5.154718e-01	5.036940e-01	5.025649e-01	2.120411e+00	
757	4.601700e-05	5.146767e-01	5.155162e-01	5.037370e-01	5.026052e-01	2.120451e+00	
758	4.602000e-05	5.147090e-01	5.155512e-01	5.037715e-01	5.026368e-01	2.120481e+00	
759	4.602080e-05	5.147176e-01	5.155608e-01	5.037809e-01	5.026456e-01	2.120488e+00	
760	4.602240e-05	5.147348e-01	5.155798e-01	5.037997e-01	5.026633e-01	2.120504e+00	
761	4.602560e-05	5.147692e-01	5.156180e-01	5.038374e-01	5.026998e-01	2.120536e+00	
762	4.603200e-05	5.148381e-01	5.156943e-01	5.039127e-01	5.027746e-01	2.120600e+00	
763	4.604480e-05	5.149757e-01	5.158471e-01	5.040634e-01	5.029253e-01	2.120727e+00	
764	4.607040e-05	5.152511e-01	5.161529e-01	5.043649e-01	5.032267e-01	2.120981e+00	
765	4.612160e-05	5.158018e-01	5.167655e-01	5.049682e-01	5.038299e-01	2.121490e+00	
766	4.622400e-05	5.169031e-01	5.179915e-01	5.061760e-01	5.050374e-01	2.122507e+00	
767	4.642038e-05	5.190150e-01	5.203285e-01	5.084951e-01	5.073560e-01	2.124458e+00	
768	4.660638e-05	5.210152e-01	5.225094e-01	5.106912e-01	5.095518e-01	2.126304e+00	
769	4.687766e-05	5.239323e-01	5.256178e-01	5.138796e-01	5.127402e-01	2.128996e+00	
770	4.702000e-05	5.254628e-01	5.272148e-01	5.155415e-01	5.144022e-01	2.130408e+00	
771	4.702100e-05	5.254735e-01	5.272258e-01	5.155530e-01	5.144138e-01	2.130418e+00	
772	4.702300e-05	5.254950e-01	5.272475e-01	5.155755e-01	5.144370e-01	2.130438e+00	
773	4.702700e-05	5.255380e-01	5.272888e-01	5.156180e-01	5.144824e-01	2.130477e+00	
774	4.703000e-05	5.255703e-01	5.273182e-01	5.156478e-01	5.145149e-01	2.130507e+00	
775	4.703080e-05	5.255789e-01	5.273258e-01	5.156555e-01	5.145233e-01	2.130515e+00	
776	4.703240e-05	5.255961e-01	5.273411e-01	5.156710e-01	5.145398e-01	2.130531e+00	
777	4.703560e-05	5.256305e-01	5.273716e-01	5.157018e-01	5.145718e-01	2.130563e+00	
778	4.704200e-05	5.256993e-01	5.274326e-01	5.157635e-01	5.146341e-01	2.130626e+00	
779	4.705480e-05	5.258369e-01	5.275544e-01	5.158868e-01	5.147573e-01	2.130753e+00	
780	4.708040e-05	5.261122e-01	5.277978e-01	5.161335e-01	5.150040e-01	2.131007e+00	
781	4.713160e-05	5.266627e-01	5.282838e-01	5.166264e-01	5.154969e-01	2.131515e+00	
782	4.723400e-05	5.277637e-01	5.292551e-01	5.176111e-01	5.164815e-01	2.132530e+00	
783	4.740076e-05	5.295567e-01	5.308471e-01	5.192124e-01	5.180825e-01	2.134183e+00	
784	4.758041e-05	5.314883e-01	5.325902e-01	5.209376e-01	5.198074e-01	2.135963e+00	
785	4.783458e-05	5.342212e-01	5.351205e-01	5.233896e-01	5.222587e-01	2.138481e+00	
786	4.801000e-05	5.361073e-01	5.369116e-01	5.250955e-01	5.239640e-01	2.140218e+00	
787	4.801100e-05	5.361180e-01	5.369221e-01	5.251055e-01	5.239738e-01	2.140228e+00	
788	4.801300e-05	5.361395e-01	5.369433e-01	5.251258e-01	5.239934e-01	2.140247e+00	
789	4.801700e-05	5.361825e-01	5.369878e-01	5.251689e-01	5.240336e-01	2.140287e+00	
790	4.802000e-05	5.362148e-01	5.370228e-01	5.252033e-01	5.240652e-01	2.140317e+00	
791	4.802080e-05	5.362234e-01	5.370323e-01	5.252127e-01	5.240740e-01	2.140325e+00	
792	4.802240e-05	5.362406e-01	5.370514e-01	5.252315e-01	5.240917e-01	2.140340e+00	
793	4.802560e-05	5.362750e-01	5.370895e-01	5.252692e-01	5.241282e-01	2.140372e+00	
794	4.803200e-05	5.363438e-01	5.371658e-01	5.253445e-01	5.242030e-01	2.140435e+00	
795	4.804480e-05	5.364814e-01	5.373185e-01	5.254952e-01	5.243537e-01	2.140562e+00	
796	4.807040e-05	5.367567e-01	5.376242e-01	5.257966e-01	5.246550e-01	2.140815e+00	
797	4.812160e-05	5.373072e-01	5.382367e-01	5.263997e-01	5.252580e-01	2.141322e+00	
798	4.822400e-05	5.384081e-01	5.394623e-01	5.276072e-01	5.264652e-01	2.142336e+00	
799	4.842034e-05	5.405189e-01	5.417979e-01	5.299252e-01	5.287827e-01	2.144278e+00	
800	4.860631e-05	5.425180e-01	5.439775e-01	5.321201e-01	5.309774e-01	2.146117e+00	
801	4.887749e-05	5.454329e-01	5.470834e-01	5.353063e-01	5.341635e-01	2.148798e+00	
802	4.902000e-05	5.469647e-01	5.486815e-01	5.369697e-01	5.358270e-01	2.150206e+00	
803	4.902100e-05	5.469754e-01	5.486925e-01	5.369811e-01	5.358386e-01	2.150216e+00	
804	4.902300e-05	5.469969e-01	5.487141e-01	5.370036e-01	5.358618e-01	2.150235e+00	
805	4.902700e-05	5.470399e-01	5.487555e-01	5.370462e-01	5.359071e-01	2.150275e+00	
806	4.903000e-05	5.470722e-01	5.487848e-01	5.370760e-01	5.359397e-01	2.150305e+00	
807	4.903080e-05	5.470808e-01	5.487924e-01	5.370837e-01	5.359480e-01	2.150312e+00	
808	4.903240e-05	5.470980e-01	5.488077e-01	5.370991e-01	5.359646e-01	2.150328e+00	
809	4.903560e-05	5.471324e-01	5.488382e-01	5.371299e-01	5.359966e-01	2.150360e+00	
810	4.904200e-05	5.472012e-01	5.488991e-01	5.371916e-01	5.360588e-01	2.150423e+00	
811	4.905480e-05	5.473387e-01	5.490209e-01	5.373149e-01	5.361820e-01	2.150550e+00	
812	4.908040e-05	5.476139e-01	5.492642e-01	5.375614e-01	5.364285e-01	2.150802e+00	
813	4.913160e-05	5.481641e-01	5.497499e-01	5.380541e-01	5.369211e-01	2.151308e+00	
814	4.923400e-05	5.492647e-01	5.507206e-01	5.390383e-01	5.379053e-01	2.152320e+00	
815	4.940071e-05	5.510564e-01	5.523112e-01	5.406383e-01	5.395051e-01	2.153966e+00	
816	4.958032e-05	5.529868e-01	5.540530e-01	5.423623e-01	5.412288e-01	2.155738e+00	
817	4.983439e-05	5.557173e-01	5.565810e-01	5.448121e-01	5.436778e-01	2.158245e+00	
818	5.001000e-05	5.576045e-01	5.583730e-01	5.465190e-01	5.453841e-01	2.159977e+00	
819	5.001100e-05	5.576153e-01	5.583835e-01	5.465290e-01	5.453939e-01	2.159986e+00	
820	5.001300e-05	5.576368e-01	5.584048e-01	5.465493e-01	5.454135e-01	2.160006e+00	
821	5.001700e-05	5.576797e-01	5.584492e-01	5.465924e-01	5.454537e-01	2.160046e+00	
822	5.002000e-05	5.577120e-01	5.584842e-01	5.466268e-01	5.454853e-01	2.160075e+00	
823	5.002080e-05	5.577206e-01	5.584937e-01	5.466362e-01	5.454941e-01	2.160083e+00	
824	5.002240e-05	5.577378e-01	5.585128e-01	5.466550e-01	5.455118e-01	2.160099e+00	
825	5.002560e-05	5.577722e-01	5.585509e-01	5.466926e-01	5.455483e-01	2.160130e+00	
826	5.003200e-05	5.578410e-01	5.586271e-01	5.467679e-01	5.456230e-01	2.160194e+00	
827	5.004480e-05	5.579785e-01	5.587798e-01	5.469185e-01	5.457736e-01	2.160320e+00	
828	5.007040e-05	5.582536e-01	5.590854e-01	5.472198e-01	5.460748e-01	2.160572e+00	
829	5.012160e-05	5.588039e-01	5.596975e-01	5.478227e-01	5.466776e-01	2.161077e+00	
830	5.022400e-05	5.599043e-01	5.609225e-01	5.490296e-01	5.478842e-01	2.162086e+00	
831	5.042028e-05	5.620134e-01	5.632564e-01	5.513460e-01	5.502001e-01	2.164020e+00	
832	5.060621e-05	5.640110e-01	5.654343e-01	5.535394e-01	5.523933e-01	2.165851e+00	
833	5.087727e-05	5.669230e-01	5.685368e-01	5.567227e-01	5.555765e-01	2.168520e+00	
834	5.102000e-05	5.684564e-01	5.701364e-01	5.583878e-01	5.572417e-01	2.169925e+00	
835	5.102100e-05	5.684671e-01	5.701473e-01	5.583992e-01	5.572533e-01	2.169934e+00	
836	5.102300e-05	5.684886e-01	5.701690e-01	5.584217e-01	5.572764e-01	2.169954e+00	
837	5.102700e-05	5.685315e-01	5.702103e-01	5.584642e-01	5.573218e-01	2.169993e+00	
838	5.103000e-05	5.685638e-01	5.702396e-01	5.584940e-01	5.573543e-01	2.170023e+00	
839	5.103080e-05	5.685724e-01	5.702472e-01	5.585017e-01	5.573627e-01	2.170031e+00	
840	5.103240e-05	5.685896e-01	5.702624e-01	5.585171e-01	5.573792e-01	2.170047e+00	
841	5.103560e-05	5.686239e-01	5.702929e-01	5.585479e-01	5.574112e-01	2.170078e+00	
842	5.104200e-05	5.686927e-01	5.703538e-01	5.586095e-01	5.574733e-01	2.170141e+00	
843	5.105480e-05	5.688302e-01	5.704755e-01	5.587327e-01	5.575965e-01	2.170267e+00	
844	5.108040e-05	5.691051e-01	5.707186e-01	5.589791e-01	5.578428e-01	2.170519e+00	
845	5.113160e-05	5.696551e-01	5.712039e-01	5.594715e-01	5.583352e-01	2.171022e+00	
846	5.123400e-05	5.707550e-01	5.721739e-01	5.604551e-01	5.593187e-01	2.172030e+00	
847	5.140064e-05	5.725450e-01	5.737627e-01	5.620534e-01	5.609168e-01	2.173668e+00	
848	5.158021e-05	5.744737e-01	5.755028e-01	5.637758e-01	5.626389e-01	2.175433e+00	
849	5.183415e-05	5.772012e-01	5.780277e-01	5.662227e-01	5.650851e-01	2.177928e+00	
850	5.201000e-05	5.790898e-01	5.798210e-01	5.679308e-01	5.667925e-01	2.179655e+00	
851	5.201100e-05	5.791006e-01	5.798315e-01	5.679407e-01	5.668022e-01	2.179665e+00	
852	5.201300e-05	5.791220e-01	5.798527e-01	5.679610e-01	5.668218e-01	2.179685e+00	
853	5.201700e-05	5.791650e-01	5.798971e-01	5.680040e-01	5.668620e-01	2.179724e+00	
854	5.202000e-05	5.791972e-01	5.799321e-01	5.680384e-01	5.668936e-01	2.179753e+00	
855	5.202080e-05	5.792058e-01	5.799416e-01	5.680478e-01	5.669024e-01	2.179761e+00	
856	5.202240e-05	5.792230e-01	5.799606e-01	5.680666e-01	5.669201e-01	2.179777e+00	
857	5.202560e-05	5.792574e-01	5.799987e-01	5.681043e-01	5.669565e-01	2.179808e+00	
858	5.203200e-05	5.793261e-01	5.800749e-01	5.681795e-01	5.670312e-01	2.179871e+00	
859	5.204480e-05	5.794636e-01	5.802275e-01	5.683300e-01	5.671818e-01	2.179997e+00	
860	5.207040e-05	5.797385e-01	5.805329e-01	5.686312e-01	5.674828e-01	2.180248e+00	
861	5.212160e-05	5.802884e-01	5.811446e-01	5.692337e-01	5.680852e-01	2.180751e+00	
862	5.222400e-05	5.813881e-01	5.823689e-01	5.704399e-01	5.692912e-01	2.181756e+00	
863	5.242022e-05	5.834951e-01	5.847004e-01	5.727542e-01	5.716050e-01	2.183681e+00	
864	5.260609e-05	5.854908e-01	5.868762e-01	5.749457e-01	5.737962e-01	2.185504e+00	
865	5.287701e-05	5.883993e-01	5.899748e-01	5.781253e-01	5.769758e-01	2.188160e+00	
866	5.302000e-05	5.899343e-01	5.915760e-01	5.797924e-01	5.786429e-01	2.189561e+00	
867	5.302100e-05	5.899450e-01	5.915870e-01	5.798038e-01	5.786545e-01	2.189571e+00	
868	5.302300e-05	5.899665e-01	5.916086e-01	5.798262e-01	5.786776e-01	2.189591e+00	
869	5.302700e-05	5.900094e-01	5.916499e-01	5.798687e-01	5.787229e-01	2.189630e+00	
870	5.303000e-05	5.900416e-01	5.916791e-01	5.798985e-01	5.787555e-01	2.189659e+00	
871	5.303080e-05	5.900502e-01	5.916868e-01	5.799062e-01	5.787638e-01	2.189667e+00	
872	5.303240e-05	5.900674e-01	5.917020e-01	5.799216e-01	5.787803e-01	2.189683e+00	
873	5.303560e-05	5.901017e-01	5.917324e-01	5.799524e-01	5.788123e-01	2.189714e+00	
874	5.304200e-05	5.901704e-01	5.917933e-01	5.800139e-01	5.788744e-01	2.189777e+00	
875	5.305480e-05	5.903078e-01	5.919148e-01	5.801370e-01	5.789974e-01	2.189902e+00	
876	5.308040e-05	5.905826e-01	5.921577e-01	5.803832e-01	5.792436e-01	2.190153e+00	
877	5.313160e-05	5.911322e-01	5.926426e-01	5.808752e-01	5.797355e-01	2.190654e+00	
878	5.323400e-05	5.922313e-01	5.936117e-01	5.818580e-01	5.807182e-01	2.191657e+00	
879	5.340056e-05	5.940190e-01	5.951982e-01	5.834541e-01	5.823142e-01	2.193288e+00	
880	5.358007e-05	5.959458e-01	5.969362e-01	5.851746e-01	5.840343e-01	2.195045e+00	
881	5.383386e-05	5.986695e-01	5.994573e-01	5.876179e-01	5.864769e-01	2.197528e+00	
882	5.401000e-05	6.005597e-01	6.012520e-01	5.893273e-01	5.881856e-01	2.199250e+00	
883	5.401100e-05	6.005704e-01	6.012625e-01	5.893373e-01	5.881954e-01	2.199260e+00	
884	5.401300e-05	6.005919e-01	6.012837e-01	5.893575e-01	5.882150e-01	2.199279e+00	
885	5.401700e-05	6.006348e-01	6.013281e-01	5.894005e-01	5.882552e-01	2.199318e+00	
886	5.402000e-05	6.006670e-01	6.013630e-01	5.894349e-01	5.882867e-01	2.199348e+00	
[...]
24836	1.485080e-03	9.599639e-01	9.552623e-01	9.635637e-01	9.624661e-01	1.804449e+00	
24837	1.485132e-03	9.594396e-01	9.546779e-01	9.629886e-01	9.618911e-01	1.803920e+00	
24838	1.485234e-03	9.583910e-01	9.535080e-01	9.618372e-01	9.607399e-01	1.802863e+00	
24839	1.485425e-03	9.564334e-01	9.513342e-01	9.596850e-01	9.585882e-01	1.800890e+00	
24840	1.485610e-03	9.545421e-01	9.492601e-01	9.576059e-01	9.565094e-01	1.798985e+00	
24841	1.485876e-03	9.518085e-01	9.463225e-01	9.546118e-01	9.535154e-01	1.796232e+00	
24842	1.486010e-03	9.504371e-01	9.448760e-01	9.531180e-01	9.520216e-01	1.794851e+00	
24843	1.486011e-03	9.504269e-01	9.448654e-01	9.531071e-01	9.520105e-01	1.794841e+00	
24844	1.486013e-03	9.504064e-01	9.448446e-01	9.530856e-01	9.519883e-01	1.794820e+00	
24845	1.486017e-03	9.503653e-01	9.448049e-01	9.530450e-01	9.519449e-01	1.794779e+00	
24846	1.486020e-03	9.503346e-01	9.447769e-01	9.530166e-01	9.519138e-01	1.794748e+00	
24847	1.486021e-03	9.503264e-01	9.447696e-01	9.530093e-01	9.519058e-01	1.794740e+00	
24848	1.486022e-03	9.503099e-01	9.447551e-01	9.529947e-01	9.518901e-01	1.794723e+00	
24849	1.486026e-03	9.502771e-01	9.447260e-01	9.529654e-01	9.518597e-01	1.794690e+00	
24850	1.486032e-03	9.502115e-01	9.446679e-01	9.529069e-01	9.518006e-01	1.794624e+00	
24851	1.486045e-03	9.500801e-01	9.445518e-01	9.527899e-01	9.516836e-01	1.794492e+00	
24852	1.486070e-03	9.498175e-01	9.443198e-01	9.525558e-01	9.514496e-01	1.794227e+00	
24853	1.486122e-03	9.492922e-01	9.438568e-01	9.520880e-01	9.509818e-01	1.793699e+00	
24854	1.486224e-03	9.482413e-01	9.429317e-01	9.511531e-01	9.500470e-01	1.792641e+00	
24855	1.486385e-03	9.465936e-01	9.414748e-01	9.496896e-01	9.485837e-01	1.790983e+00	
24856	1.486561e-03	9.447769e-01	9.398477e-01	9.480765e-01	9.469709e-01	1.789156e+00	
24857	1.486808e-03	9.422419e-01	9.375275e-01	9.458184e-01	9.447134e-01	1.786607e+00	
24858	1.487020e-03	9.400631e-01	9.354840e-01	9.438635e-01	9.427593e-01	1.784418e+00	
24859	1.487021e-03	9.400528e-01	9.354740e-01	9.438541e-01	9.427500e-01	1.784408e+00	
24860	1.487023e-03	9.400323e-01	9.354539e-01	9.438347e-01	9.427314e-01	1.784387e+00	
24861	1.487027e-03	9.399911e-01	9.354116e-01	9.437936e-01	9.426931e-01	1.784346e+00	
24862	1.487030e-03	9.399603e-01	9.353781e-01	9.437607e-01	9.426630e-01	1.784315e+00	
24863	1.487031e-03	9.399520e-01	9.353689e-01	9.437517e-01	9.426546e-01	1.784306e+00	
24864	1.487032e-03	9.399356e-01	9.353507e-01	9.437337e-01	9.426377e-01	1.784290e+00	
24865	1.487036e-03	9.399027e-01	9.353141e-01	9.436976e-01	9.426028e-01	1.784257e+00	
24866	1.487042e-03	9.398368e-01	9.352410e-01	9.436255e-01	9.425312e-01	1.784191e+00	
24867	1.487055e-03	9.397052e-01	9.350947e-01	9.434812e-01	9.423869e-01	1.784058e+00	
24868	1.487080e-03	9.394419e-01	9.348017e-01	9.431926e-01	9.420984e-01	1.783794e+00	
24869	1.487132e-03	9.389152e-01	9.342149e-01	9.426150e-01	9.415209e-01	1.783265e+00	
24870	1.487234e-03	9.378617e-01	9.330400e-01	9.414586e-01	9.403648e-01	1.782207e+00	
24871	1.487425e-03	9.358910e-01	9.308527e-01	9.392928e-01	9.381994e-01	1.780227e+00	
24872	1.487610e-03	9.339892e-01	9.287682e-01	9.372028e-01	9.361097e-01	1.778318e+00	
24873	1.487877e-03	9.312377e-01	9.258131e-01	9.341903e-01	9.330975e-01	1.775557e+00	
24874	1.488010e-03	9.298710e-01	9.243724e-01	9.327022e-01	9.316093e-01	1.774186e+00	
24875	1.488011e-03	9.298607e-01	9.243617e-01	9.326912e-01	9.315981e-01	1.774176e+00	
24876	1.488013e-03	9.298401e-01	9.243408e-01	9.326696e-01	9.315758e-01	1.774155e+00	
24877	1.488017e-03	9.297988e-01	9.243009e-01	9.326288e-01	9.315322e-01	1.774113e+00	
24878	1.488020e-03	9.297679e-01	9.242728e-01	9.326003e-01	9.315010e-01	1.774082e+00	
24879	1.488021e-03	9.297597e-01	9.242655e-01	9.325930e-01	9.314930e-01	1.774074e+00	
24880	1.488022e-03	9.297432e-01	9.242509e-01	9.325783e-01	9.314772e-01	1.774058e+00	
24881	1.488026e-03	9.297102e-01	9.242216e-01	9.325489e-01	9.314466e-01	1.774025e+00	
24882	1.488032e-03	9.296443e-01	9.241632e-01	9.324900e-01	9.313872e-01	1.773958e+00	
24883	1.488045e-03	9.295123e-01	9.240465e-01	9.323724e-01	9.312696e-01	1.773826e+00	
24884	1.488070e-03	9.292485e-01	9.238134e-01	9.321371e-01	9.310344e-01	1.773561e+00	
24885	1.488122e-03	9.287208e-01	9.233481e-01	9.316669e-01	9.305642e-01	1.773032e+00	
24886	1.488224e-03	9.276651e-01	9.224183e-01	9.307273e-01	9.296247e-01	1.771973e+00	
24887	1.488385e-03	9.260052e-01	9.209499e-01	9.292521e-01	9.281497e-01	1.770309e+00	
24888	1.488562e-03	9.241778e-01	9.193124e-01	9.276287e-01	9.265266e-01	1.768478e+00	
24889	1.488809e-03	9.216248e-01	9.169743e-01	9.253532e-01	9.242518e-01	1.765920e+00	
24890	1.489020e-03	9.194497e-01	9.149331e-01	9.234005e-01	9.222998e-01	1.763742e+00	
24891	1.489021e-03	9.194394e-01	9.149231e-01	9.233910e-01	9.222904e-01	1.763732e+00	
24892	1.489023e-03	9.194187e-01	9.149028e-01	9.233716e-01	9.222717e-01	1.763711e+00	
24893	1.489027e-03	9.193774e-01	9.148603e-01	9.233303e-01	9.222333e-01	1.763670e+00	
24894	1.489030e-03	9.193464e-01	9.148267e-01	9.232973e-01	9.222030e-01	1.763639e+00	
24895	1.489031e-03	9.193381e-01	9.148175e-01	9.232882e-01	9.221946e-01	1.763630e+00	
24896	1.489032e-03	9.193216e-01	9.147992e-01	9.232701e-01	9.221776e-01	1.763614e+00	
24897	1.489036e-03	9.192886e-01	9.147625e-01	9.232339e-01	9.221426e-01	1.763581e+00	
24898	1.489042e-03	9.192224e-01	9.146890e-01	9.231615e-01	9.220707e-01	1.763515e+00	
24899	1.489055e-03	9.190902e-01	9.145421e-01	9.230166e-01	9.219258e-01	1.763382e+00	
24900	1.489080e-03	9.188257e-01	9.142480e-01	9.227267e-01	9.216360e-01	1.763117e+00	
24901	1.489132e-03	9.182967e-01	9.136587e-01	9.221467e-01	9.210562e-01	1.762588e+00	
24902	1.489234e-03	9.172384e-01	9.124790e-01	9.209855e-01	9.198952e-01	1.761529e+00	
24903	1.489426e-03	9.152550e-01	9.102786e-01	9.188065e-01	9.177166e-01	1.759544e+00	
24904	1.489611e-03	9.133430e-01	9.081840e-01	9.167061e-01	9.156165e-01	1.757631e+00	
24905	1.489878e-03	9.105744e-01	9.052122e-01	9.136759e-01	9.125865e-01	1.754863e+00	
24906	1.490010e-03	9.092121e-01	9.037770e-01	9.121931e-01	9.111037e-01	1.753501e+00	
24907	1.490011e-03	9.092018e-01	9.037663e-01	9.121821e-01	9.110925e-01	1.753491e+00	
24908	1.490013e-03	9.091811e-01	9.037453e-01	9.121604e-01	9.110701e-01	1.753470e+00	
24909	1.490017e-03	9.091397e-01	9.037052e-01	9.121195e-01	9.110264e-01	1.753428e+00	
24910	1.490020e-03	9.091086e-01	9.036769e-01	9.120909e-01	9.109950e-01	1.753397e+00	
24911	1.490021e-03	9.091003e-01	9.036696e-01	9.120835e-01	9.109869e-01	1.753389e+00	
24912	1.490022e-03	9.090838e-01	9.036549e-01	9.120687e-01	9.109711e-01	1.753373e+00	
24913	1.490026e-03	9.090506e-01	9.036255e-01	9.120391e-01	9.109403e-01	1.753339e+00	
24914	1.490032e-03	9.089844e-01	9.035669e-01	9.119800e-01	9.108807e-01	1.753273e+00	
24915	1.490045e-03	9.088519e-01	9.034496e-01	9.118618e-01	9.107625e-01	1.753141e+00	
24916	1.490070e-03	9.085869e-01	9.032154e-01	9.116254e-01	9.105261e-01	1.752876e+00	
24917	1.490122e-03	9.080568e-01	9.027478e-01	9.111528e-01	9.100536e-01	1.752346e+00	
24918	1.490224e-03	9.069965e-01	9.018135e-01	9.102086e-01	9.091094e-01	1.751287e+00	
24919	1.490385e-03	9.053248e-01	9.003340e-01	9.087221e-01	9.076232e-01	1.749617e+00	
24920	1.490563e-03	9.034872e-01	8.986864e-01	9.070888e-01	9.059902e-01	1.747781e+00	
24921	1.490811e-03	9.009168e-01	8.963309e-01	9.047965e-01	9.036985e-01	1.745215e+00	
24922	1.491020e-03	8.987453e-01	8.942920e-01	9.028460e-01	9.017487e-01	1.743049e+00	
24923	1.491021e-03	8.987349e-01	8.942820e-01	9.028364e-01	9.017393e-01	1.743038e+00	
24924	1.491023e-03	8.987141e-01	8.942616e-01	9.028169e-01	9.017205e-01	1.743018e+00	
24925	1.491027e-03	8.986726e-01	8.942189e-01	9.027755e-01	9.016819e-01	1.742976e+00	
24926	1.491030e-03	8.986415e-01	8.941852e-01	9.027423e-01	9.016515e-01	1.742945e+00	
24927	1.491031e-03	8.986332e-01	8.941760e-01	9.027332e-01	9.016431e-01	1.742937e+00	
24928	1.491032e-03	8.986166e-01	8.941575e-01	9.027150e-01	9.016260e-01	1.742920e+00	
24929	1.491036e-03	8.985834e-01	8.941207e-01	9.026786e-01	9.015908e-01	1.742887e+00	
24930	1.491042e-03	8.985170e-01	8.940470e-01	9.026059e-01	9.015187e-01	1.742821e+00	
24931	1.491055e-03	8.983842e-01	8.938995e-01	9.024604e-01	9.013732e-01	1.742688e+00	
24932	1.491080e-03	8.981185e-01	8.936042e-01	9.021694e-01	9.010822e-01	1.742423e+00	
24933	1.491132e-03	8.975872e-01	8.930126e-01	9.015871e-01	9.005000e-01	1.741893e+00	
24934	1.491234e-03	8.965244e-01	8.918283e-01	9.004213e-01	8.993345e-01	1.740833e+00	
24935	1.491426e-03	8.945288e-01	8.896153e-01	8.982295e-01	8.971431e-01	1.738844e+00	
24936	1.491611e-03	8.926070e-01	8.875109e-01	8.961189e-01	8.950329e-01	1.736928e+00	
24937	1.491879e-03	8.898217e-01	8.845228e-01	8.930716e-01	8.919857e-01	1.734152e+00	
24938	1.492010e-03	8.884638e-01	8.830930e-01	8.915942e-01	8.905083e-01	1.732800e+00	
24939	1.492011e-03	8.884534e-01	8.830823e-01	8.915831e-01	8.904970e-01	1.732789e+00	
24940	1.492013e-03	8.884326e-01	8.830612e-01	8.915613e-01	8.904745e-01	1.732769e+00	
24941	1.492017e-03	8.883910e-01	8.830210e-01	8.915202e-01	8.904306e-01	1.732727e+00	
24942	1.492020e-03	8.883598e-01	8.829926e-01	8.914915e-01	8.903991e-01	1.732696e+00	
24943	1.492021e-03	8.883515e-01	8.829852e-01	8.914840e-01	8.903910e-01	1.732688e+00	
24944	1.492022e-03	8.883349e-01	8.829704e-01	8.914692e-01	8.903751e-01	1.732671e+00	
24945	1.492026e-03	8.883016e-01	8.829410e-01	8.914395e-01	8.903442e-01	1.732638e+00	
24946	1.492032e-03	8.882351e-01	8.828820e-01	8.913801e-01	8.902842e-01	1.732572e+00	
24947	1.492045e-03	8.881020e-01	8.827642e-01	8.912613e-01	8.901655e-01	1.732439e+00	
24948	1.492070e-03	8.878359e-01	8.825289e-01	8.910238e-01	8.899280e-01	1.732174e+00	
24949	1.492122e-03	8.873036e-01	8.820591e-01	8.905490e-01	8.894533e-01	1.731644e+00	
24950	1.492224e-03	8.862388e-01	8.811205e-01	8.896003e-01	8.885046e-01	1.730584e+00	
24951	1.492386e-03	8.845557e-01	8.796303e-01	8.881030e-01	8.870075e-01	1.728908e+00	
24952	1.492563e-03	8.827082e-01	8.779730e-01	8.864600e-01	8.853649e-01	1.727070e+00	
24953	1.492812e-03	8.801210e-01	8.756008e-01	8.841515e-01	8.830570e-01	1.724496e+00	
24954	1.493020e-03	8.779530e-01	8.735641e-01	8.822031e-01	8.811094e-01	1.722340e+00	
24955	1.493021e-03	8.779426e-01	8.735540e-01	8.821935e-01	8.810999e-01	1.722330e+00	
24956	1.493023e-03	8.779218e-01	8.735336e-01	8.821739e-01	8.810810e-01	1.722309e+00	
24957	1.493027e-03	8.778801e-01	8.734907e-01	8.821323e-01	8.810422e-01	1.722268e+00	
24958	1.493030e-03	8.778488e-01	8.734568e-01	8.820990e-01	8.810117e-01	1.722237e+00	
24959	1.493031e-03	8.778405e-01	8.734476e-01	8.820898e-01	8.810032e-01	1.722228e+00	
24960	1.493032e-03	8.778238e-01	8.734291e-01	8.820716e-01	8.809861e-01	1.722212e+00	
24961	1.493036e-03	8.777905e-01	8.733921e-01	8.820351e-01	8.809508e-01	1.722179e+00	
24962	1.493042e-03	8.777238e-01	8.733181e-01	8.819621e-01	8.808783e-01	1.722112e+00	
24963	1.493055e-03	8.775905e-01	8.731701e-01	8.818161e-01	8.807323e-01	1.721980e+00	
24964	1.493080e-03	8.773237e-01	8.728736e-01	8.815239e-01	8.804402e-01	1.721715e+00	
24965	1.493132e-03	8.767902e-01	8.722798e-01	8.809394e-01	8.798558e-01	1.721184e+00	
24966	1.493234e-03	8.757230e-01	8.710911e-01	8.797690e-01	8.786857e-01	1.720124e+00	
24967	1.493427e-03	8.737156e-01	8.688659e-01	8.775650e-01	8.764821e-01	1.718129e+00	
24968	1.493612e-03	8.717843e-01	8.667521e-01	8.754447e-01	8.743621e-01	1.716211e+00	
24969	1.493880e-03	8.689829e-01	8.637484e-01	8.723808e-01	8.712984e-01	1.713429e+00	
24970	1.494010e-03	8.676293e-01	8.623238e-01	8.709085e-01	8.698261e-01	1.712085e+00	
24971	1.494011e-03	8.676189e-01	8.623131e-01	8.708974e-01	8.698148e-01	1.712075e+00	
24972	1.494013e-03	8.675980e-01	8.622919e-01	8.708755e-01	8.697922e-01	1.712054e+00	
24973	1.494017e-03	8.675563e-01	8.622515e-01	8.708342e-01	8.697481e-01	1.712013e+00	
24974	1.494020e-03	8.675249e-01	8.622230e-01	8.708054e-01	8.697165e-01	1.711982e+00	
24975	1.494021e-03	8.675166e-01	8.622156e-01	8.707979e-01	8.697084e-01	1.711973e+00	
24976	1.494022e-03	8.674999e-01	8.622008e-01	8.707830e-01	8.696924e-01	1.711957e+00	
24977	1.494026e-03	8.674665e-01	8.621711e-01	8.707532e-01	8.696614e-01	1.711924e+00	
24978	1.494032e-03	8.673997e-01	8.621119e-01	8.706935e-01	8.696011e-01	1.711857e+00	
24979	1.494045e-03	8.672661e-01	8.619936e-01	8.705742e-01	8.694819e-01	1.711725e+00	
24980	1.494070e-03	8.669989e-01	8.617572e-01	8.703356e-01	8.692433e-01	1.711459e+00	
24981	1.494122e-03	8.664644e-01	8.612854e-01	8.698586e-01	8.687664e-01	1.710929e+00	
24982	1.494224e-03	8.653953e-01	8.603427e-01	8.689056e-01	8.678135e-01	1.709868e+00	
24983	1.494386e-03	8.637012e-01	8.588420e-01	8.673978e-01	8.663059e-01	1.708188e+00	
24984	1.494564e-03	8.618442e-01	8.571754e-01	8.657456e-01	8.646539e-01	1.706346e+00	
24985	1.494813e-03	8.592407e-01	8.547871e-01	8.634215e-01	8.623305e-01	1.703765e+00	
24986	1.495020e-03	8.570763e-01	8.527526e-01	8.614752e-01	8.603849e-01	1.701621e+00	
24987	1.495021e-03	8.570658e-01	8.527425e-01	8.614656e-01	8.603755e-01	1.701610e+00	
24988	1.495023e-03	8.570449e-01	8.527220e-01	8.614459e-01	8.603565e-01	1.701589e+00	
24989	1.495027e-03	8.570031e-01	8.526789e-01	8.614041e-01	8.603175e-01	1.701548e+00	
24990	1.495030e-03	8.569717e-01	8.526449e-01	8.613706e-01	8.602869e-01	1.701517e+00	
24991	1.495031e-03	8.569633e-01	8.526356e-01	8.613615e-01	8.602784e-01	1.701509e+00	
24992	1.495032e-03	8.569466e-01	8.526171e-01	8.613432e-01	8.602612e-01	1.701492e+00	
24993	1.495036e-03	8.569131e-01	8.525800e-01	8.613065e-01	8.602257e-01	1.701459e+00	
24994	1.495042e-03	8.568462e-01	8.525057e-01	8.612332e-01	8.601530e-01	1.701393e+00	
24995	1.495055e-03	8.567123e-01	8.523571e-01	8.610867e-01	8.600064e-01	1.701260e+00	
24996	1.495080e-03	8.564445e-01	8.520596e-01	8.607935e-01	8.597133e-01	1.700995e+00	
24997	1.495132e-03	8.559088e-01	8.514636e-01	8.602068e-01	8.591267e-01	1.700464e+00	
24998	1.495234e-03	8.548374e-01	8.502706e-01	8.590321e-01	8.579523e-01	1.699403e+00	
24999	1.495427e-03	8.528186e-01	8.480337e-01	8.568162e-01	8.557368e-01	1.697404e+00	
25000	1.495612e-03	8.508782e-01	8.459109e-01	8.546865e-01	8.536074e-01	1.695483e+00	
25001	1.495881e-03	8.480614e-01	8.428922e-01	8.516067e-01	8.505278e-01	1.692696e+00	
25002	1.496010e-03	8.467120e-01	8.414727e-01	8.501394e-01	8.490605e-01	1.691361e+00	
25003	1.496011e-03	8.467015e-01	8.414619e-01	8.501283e-01	8.490492e-01	1.691351e+00	
25004	1.496013e-03	8.466805e-01	8.414406e-01	8.501063e-01	8.490265e-01	1.691330e+00	
25005	1.496017e-03	8.466386e-01	8.414001e-01	8.500649e-01	8.489823e-01	1.691288e+00	
25006	1.496020e-03	8.466072e-01	8.413715e-01	8.500359e-01	8.489505e-01	1.691257e+00	
25007	1.496021e-03	8.465988e-01	8.413640e-01	8.500284e-01	8.489423e-01	1.691249e+00	
25008	1.496022e-03	8.465820e-01	8.413491e-01	8.500134e-01	8.489263e-01	1.691233e+00	
25009	1.496026e-03	8.465485e-01	8.413194e-01	8.499834e-01	8.488951e-01	1.691199e+00	
25010	1.496032e-03	8.464815e-01	8.412599e-01	8.499235e-01	8.488347e-01	1.691133e+00	
25011	1.496045e-03	8.463473e-01	8.411411e-01	8.498037e-01	8.487149e-01	1.691000e+00	
25012	1.496070e-03	8.460791e-01	8.409037e-01	8.495640e-01	8.484753e-01	1.690735e+00	
25013	1.496122e-03	8.455425e-01	8.404299e-01	8.490850e-01	8.479963e-01	1.690204e+00	
25014	1.496224e-03	8.444693e-01	8.394832e-01	8.481279e-01	8.470393e-01	1.689143e+00	
25015	1.496387e-03	8.427646e-01	8.379726e-01	8.466100e-01	8.455216e-01	1.687458e+00	
25016	1.496565e-03	8.408984e-01	8.362970e-01	8.449488e-01	8.438607e-01	1.685614e+00	
25017	1.496814e-03	8.382794e-01	8.338931e-01	8.426097e-01	8.415222e-01	1.683027e+00	
25018	1.497020e-03	8.361183e-01	8.318608e-01	8.406655e-01	8.395787e-01	1.680893e+00	
25019	1.497021e-03	8.361078e-01	8.318507e-01	8.406558e-01	8.395693e-01	1.680882e+00	
25020	1.497023e-03	8.360868e-01	8.318301e-01	8.406360e-01	8.395502e-01	1.680862e+00	
25021	1.497027e-03	8.360448e-01	8.317868e-01	8.405941e-01	8.395111e-01	1.680820e+00	
25022	1.497030e-03	8.360133e-01	8.317527e-01	8.405605e-01	8.394803e-01	1.680789e+00	
25023	1.497031e-03	8.360049e-01	8.317434e-01	8.405513e-01	8.394717e-01	1.680781e+00	
25024	1.497032e-03	8.359881e-01	8.317248e-01	8.405330e-01	8.394545e-01	1.680764e+00	
25025	1.497036e-03	8.359545e-01	8.316875e-01	8.404962e-01	8.394189e-01	1.680731e+00	
25026	1.497042e-03	8.358873e-01	8.316130e-01	8.404227e-01	8.393459e-01	1.680665e+00	
25027	1.497055e-03	8.357529e-01	8.314639e-01	8.402756e-01	8.391988e-01	1.680532e+00	
25028	1.497080e-03	8.354841e-01	8.311654e-01	8.399813e-01	8.389046e-01	1.680267e+00	
25029	1.497132e-03	8.349464e-01	8.305673e-01	8.393926e-01	8.383160e-01	1.679736e+00	
25030	1.497234e-03	8.338710e-01	8.293702e-01	8.382138e-01	8.371375e-01	1.678674e+00	
25031	1.497427e-03	8.318412e-01	8.271220e-01	8.359864e-01	8.349105e-01	1.676672e+00	
25032	1.497613e-03	8.298921e-01	8.249906e-01	8.338477e-01	8.327722e-01	1.674749e+00	
25033	1.497882e-03	8.270605e-01	8.219575e-01	8.307527e-01	8.296773e-01	1.671957e+00	
25034	1.498010e-03	8.257150e-01	8.205429e-01	8.292902e-01	8.282148e-01	1.670630e+00	
25035	1.498011e-03	8.257045e-01	8.205320e-01	8.292790e-01	8.282034e-01	1.670620e+00	
25036	1.498013e-03	8.256835e-01	8.205107e-01	8.292570e-01	8.281807e-01	1.670599e+00	
25037	1.498017e-03	8.256414e-01	8.204700e-01	8.292154e-01	8.281363e-01	1.670558e+00	
25038	1.498020e-03	8.256099e-01	8.204413e-01	8.291862e-01	8.281044e-01	1.670527e+00	
25039	1.498021e-03	8.256015e-01	8.204338e-01	8.291787e-01	8.280962e-01	1.670518e+00	
25040	1.498022e-03	8.255846e-01	8.204189e-01	8.291637e-01	8.280801e-01	1.670502e+00	
25041	1.498026e-03	8.255510e-01	8.203890e-01	8.291336e-01	8.280488e-01	1.670469e+00	
25042	1.498032e-03	8.254837e-01	8.203293e-01	8.290734e-01	8.279881e-01	1.670402e+00	
25043	1.498045e-03	8.253491e-01	8.202100e-01	8.289531e-01	8.278678e-01	1.670270e+00	
25044	1.498070e-03	8.250798e-01	8.199717e-01	8.287125e-01	8.276272e-01	1.670004e+00	
25045	1.498122e-03	8.245413e-01	8.194959e-01	8.282314e-01	8.271462e-01	1.669473e+00	
25046	1.498224e-03	8.234640e-01	8.185453e-01	8.272704e-01	8.261852e-01	1.668412e+00	
25047	1.498387e-03	8.217491e-01	8.170252e-01	8.257427e-01	8.246578e-01	1.666722e+00	
25048	1.498565e-03	8.198742e-01	8.153410e-01	8.240730e-01	8.229884e-01	1.664876e+00	
25049	1.498815e-03	8.172403e-01	8.129221e-01	8.217194e-01	8.206355e-01	1.662283e+00	
25050	1.499020e-03	8.150825e-01	8.108921e-01	8.197773e-01	8.186941e-01	1.660160e+00	
25051	1.499021e-03	8.150720e-01	8.108819e-01	8.197676e-01	8.186845e-01	1.660149e+00	
25052	1.499023e-03	8.150509e-01	8.108612e-01	8.197477e-01	8.186654e-01	1.660129e+00	
25053	1.499027e-03	8.150087e-01	8.108178e-01	8.197056e-01	8.186261e-01	1.660087e+00	
25054	1.499030e-03	8.149771e-01	8.107835e-01	8.196720e-01	8.185952e-01	1.660056e+00	
25055	1.499031e-03	8.149687e-01	8.107742e-01	8.196627e-01	8.185867e-01	1.660048e+00	
25056	1.499032e-03	8.149518e-01	8.107555e-01	8.196443e-01	8.185693e-01	1.660031e+00	
25057	1.499036e-03	8.149181e-01	8.107182e-01	8.196074e-01	8.185336e-01	1.659998e+00	
25058	1.499042e-03	8.148507e-01	8.106434e-01	8.195336e-01	8.184604e-01	1.659932e+00	
25059	1.499055e-03	8.147158e-01	8.104938e-01	8.193860e-01	8.183128e-01	1.659799e+00	
25060	1.499080e-03	8.144460e-01	8.101942e-01	8.190908e-01	8.180176e-01	1.659534e+00	
25061	1.499132e-03	8.139063e-01	8.095942e-01	8.185000e-01	8.174270e-01	1.659003e+00	
25062	1.499234e-03	8.128270e-01	8.083932e-01	8.173173e-01	8.162445e-01	1.657941e+00	
25063	1.499428e-03	8.107867e-01	8.061341e-01	8.150790e-01	8.140066e-01	1.655935e+00	
25064	1.499613e-03	8.088293e-01	8.039945e-01	8.129316e-01	8.118596e-01	1.654011e+00	
25065	1.499883e-03	8.059835e-01	8.009476e-01	8.098220e-01	8.087501e-01	1.651214e+00	
25066	1.500000e-03	8.047474e-01	7.996480e-01	8.084785e-01	8.074066e-01	1.650000e+00	

elapsed time since last call: 3.764 seconds.

Total elapsed time: 3.764 seconds.

Total DRAM available = 3920.781250 MB.
DRAM currently available = 934.160156 MB.
Total ngspice program size = 6.388672 MB.
Resident set size = 2.600586 MB.
Shared ngspice pages = 585.000 kB.
Text (code) pages = 1.073242 MB.
Stack = 0 bytes.
Library pages = 3.958008 MB.


