

Circuit: **************************************************************

Reducing trtol to 1 for xspice 'A' devices
Doing analysis at TEMP = 27.000000 and TNOM = 27.000000


No. of Data Rows : 11
                     **************************************************************
                     DC transfer characteristic  Sat Jan  3 11:03:39  2015
--------------------------------------------------------------------------------------------------------
Index   v-sweep         v(vint01)       v(vint02)       
--------------------------------------------------------------------------------------------------------
0	0.000000e+00	-1.19002e+01	1.088040e+01	
1	3.300000e-01	-1.05420e+01	1.054541e+01	
2	6.600000e-01	-7.89968e+00	7.903138e+00	
3	9.900000e-01	-5.25718e+00	5.260690e+00	
4	1.320000e+00	-2.61476e+00	2.618329e+00	
5	1.650000e+00	2.764906e-02	-2.40280e-02	
6	1.980000e+00	2.670060e+00	-2.66638e+00	
7	2.310000e+00	5.312475e+00	-5.30874e+00	
8	2.640000e+00	7.954890e+00	-7.95111e+00	
9	2.970000e+00	1.059730e+01	-1.05935e+01	
10	3.300000e+00	1.091096e+01	-1.09071e+01	

elapsed time since last call: 0.015 seconds.

Total elapsed time: 0.015 seconds.

Total DRAM available = 3920.781250 MB.
DRAM currently available = 412.253906 MB.
Total ngspice program size = 5.523438 MB.
Resident set size = 754.000 kB.
Shared ngspice pages = 551.000 kB.
Text (code) pages = 1.073242 MB.
Stack = 0 bytes.
Library pages = 3.092773 MB.


