
Circuit: **************************************************************

Doing analysis at TEMP = 27.000000 and TNOM = 27.000000


No. of Data Rows : 21

No. of Data Rows : 161

No. of Data Rows : 1
	Node                                  Voltage
	----                                  -------
	----	-------
	vin                              0.000000e+00
	vcc                              1.500000e+01
	vout                             0.000000e+00
	V(1)                             5.931618e+00
	V(2)                             2.765412e-01
	vbase                            9.674881e-01
	V(3)                             0.000000e+00

	Source	Current
	------	-------

	vcc101#branch                    -3.24916e-03
	vinput101#branch                 0.000000e+00

 BJT models (Bipolar Junction Transistor)
      model                2n3904

       type                   npn
       tnom                    27
         is             6.734e-15
         bf                 416.4
         nf                     1
        vaf                 74.03
        ikf               0.06678
        ise             6.734e-15
         ne                 1.259
         br                0.7371
         nr                     1
        var                     0
        ikr                     0
        isc                     0
         nc                     2
         rb                    10
        irb                     0
        rbm                    10
         re                     0
         rc                     1
        cje             4.493e-12
        vje                  0.75
        mje                0.2593
         tf             3.012e-10
        xtf                     2
        vtf                     4
        itf                   0.4
        ptf                     0
        cjc             3.638e-12
        vjc                  0.75
        mjc                0.3085
       xcjc                     1
         tr             2.395e-07
        cjs                     0
        vjs                  0.75
        mjs                     0
        xtb                   1.5
         eg                  1.11
        xti                     3
         fc                   0.5
         kf                     0
         af                     0
        iss                     0
         ns                     1
       tlev                     0
      tlevc                     0
       tbf1                     0
       tbf2                     0
       tbr1                     0
       tbr2                     0
      tikf1                     0
      tikf2                     0
      tikr1                     0
      tikr2                     0
      tirb1                     0
      tirb2                     0
       tnc1                     0
       tnc2                     0
       tne1                     0
       tne2                     0
       tnf1                     0
       tnf2                     0
       tnr1                     0
       tnr2                     0
       trb1                     0
       trb2                     0
       trc1                     0
       trc2                     0
       tre1                     0
       tre2                     0
       trm1                     0
       trm2                     0
      tvaf1                     0
      tvaf2                     0
      tvar1                     0
      tvar2                     0
        ctc                     0
        cte                     0
        cts                     0
       tvjc                     0
       tvje                     0
       tvjs                     0
      titf1                     0
      titf2                     0
       ttf1                     0
       ttf2                     0
       ttr1                     0
       ttr2                     0
      tmje1                     0
      tmje2                     0
      tmjc1                     0
      tmjc2                     0
      tmjs1                     0
      tmjs2                     0
       tns1                     0
       tns2                     0
        nkf                   0.5

 Capacitor models (Fixed capacitor)
      model                     C

        cap                     0
         cj                     0
       cjsw                     0
       defw                 1e-05
       defl                     0
     narrow                     0
      short                     0
        tc1                     0
        tc2                     0
         di                     0
      thick                     0

 Resistor models (Simple linear resistor)
      model                     R

        rsh                     0
     narrow                     0
      short                     0
        tc1                     0
        tc2                     0
       defw                 1e-05
         kf                     0
         af                     0

 BJT: Bipolar Junction Transistor
     device                  q101
      model                2n3904
         ic            0.00274799
         ib           1.74171e-05
         ie           -0.00276541
        vbe              0.690773
        vbc              -4.96156
         gm              0.102408
        gpi           0.000585964
        gmu                 1e-12
         gx                   0.1
         go           3.47885e-05
        cpi           3.74112e-11
        cmu           1.94473e-12
        cbx                     0
       csub                     0

 Capacitor: Fixed capacitor
     device                  c103                  c102                  c101
      model                     C                     C                     C
capacitance               2.2e-06                 1e-12               2.2e-06
        cap               2.2e-06                 1e-12               2.2e-06
          c               2.2e-06                 1e-12               2.2e-06
      dtemp                     0                     0                     0
          i                     0                     0                     0
          p                     0                    -0                    -0

 Resistor: Simple linear resistor
     device                  r106                  r105                  r104                  r103                  r102                  r101
      model                     R                     R                     R                     R                     R                     R
 resistance                100000                    10                   100                  2000                 28000                  3300
         ac                100000                    10                   100                  2000                 28000                  3300
      dtemp                     0                     0                     0                     0                     0                     0
      noisy                     1                     1                     1                     1                     1                     1
          i                     0                     0           -0.00276541          -0.000483744          -0.000501161           -0.00274799
          p                     0                     0            0.00076475           0.000468017            0.00703255             0.0249199

 Vsource: Independent voltage source
     device             vinput101                vcc101
         dc                     0                    15
      acmag                    15                     0
      pulse         -         -
       sine         -         -
        sin         -         -
        exp         -         -
        pwl         -         -
       sffm         -         -
         am         -         -
    trnoise         -         -
   trrandom         -         -
          i                     0           -0.00324916
          p                    -0             0.0487373

----------------------------------------------------------------------------------------------------------------------------------------------------------------------------------------------------------------------------------------------------------------------------------------------------------------------------------------------------------------------------------------------------------------------------------------------------------------------------------------------------------------------------------------------------------------------------------------------------------------------------------
                                                                                                                                                                                                                                                                                  **************************************************************
                                                                                                                                                                                                                                                                                              AC Analysis Fri Jan  2 08:31:27  2015

Legend:  + = v(vout)          * = v(vin)           
----------------------------------------------------------------------------------------------------------------------------------------------------------------------------------------------------------------------------------------------------------------------------------------------------------------------------------------------------------------------------------------------------------------------------------------------------------------------------------------------------------------------------------------------------------------------------------------------------------------------------------
 frequency  v(vout) -5.00e+02                                                                                        -4.00e+02                                                                                        -3.00e+02                                                                                        -2.00e+02                                                                                        -1.00e+02                                                                                         0.00e+00                                                                                         1.00e+02     
----------------------|------------------------------------------------------------------------------------------------|------------------------------------------------------------------------------------------------|------------------------------------------------------------------------------------------------|------------------------------------------------------------------------------------------------|------------------------------------------------------------------------------------------------|------------------------------------------------------------------------------------------------|
 1.000e+00  4.546e+00 .                                                                                                .                                                                                                .                                                                                                .                                                                                                .                                                                                                .   +         *                                                                                  .     
 1.122e+00  4.831e+00 .                                                                                                .                                                                                                .                                                                                                .                                                                                                .                                                                                                .   +         *                                                                                  .     
 1.259e+00  5.068e+00 .                                                                                                .                                                                                                .                                                                                                .                                                                                                .                                                                                                .   +         *                                                                                  .     
 1.413e+00  5.249e+00 .                                                                                                .                                                                                                .                                                                                                .                                                                                                .                                                                                                .    +        *                                                                                  .     
 1.585e+00  5.368e+00 .                                                                                                .                                                                                                .                                                                                                .                                                                                                .                                                                                                .    +        *                                                                                  .     
 1.778e+00  5.421e+00 .                                                                                                .                                                                                                .                                                                                                .                                                                                                .                                                                                                .    +        *                                                                                  .     
 1.995e+00  5.402e+00 .                                                                                                .                                                                                                .                                                                                                .                                                                                                .                                                                                                .    +        *                                                                                  .     
 2.239e+00  5.304e+00 .                                                                                                .                                                                                                .                                                                                                .                                                                                                .                                                                                                .    +        *                                                                                  .     
 2.512e+00  5.117e+00 .                                                                                                .                                                                                                .                                                                                                .                                                                                                .                                                                                                .   +         *                                                                                  .     
 2.818e+00  4.830e+00 .                                                                                                .                                                                                                .                                                                                                .                                                                                                .                                                                                                .   +         *                                                                                  .     
 3.162e+00  4.425e+00 .                                                                                                .                                                                                                .                                                                                                .                                                                                                .                                                                                                .   +         *                                                                                  .     
 3.548e+00  3.881e+00 .                                                                                                .                                                                                                .                                                                                                .                                                                                                .                                                                                                .  +          *                                                                                  .     
 3.981e+00  3.168e+00 .                                                                                                .                                                                                                .                                                                                                .                                                                                                .                                                                                                .  +          *                                                                                  .     
 4.467e+00  2.250e+00 .                                                                                                .                                                                                                .                                                                                                .                                                                                                .                                                                                                . +           *                                                                                  .     
 5.012e+00  1.081e+00 .                                                                                                .                                                                                                .                                                                                                .                                                                                                .                                                                                                .+            *                                                                                  .     
 5.623e+00 -3.966e-01 .                                                                                                .                                                                                                .                                                                                                .                                                                                                .                                                                                               +.             *                                                                                  .     
 6.310e+00 -2.255e+00 .                                                                                                .                                                                                                .                                                                                                .                                                                                                .                                                                                             +  .             *                                                                                  .     
 7.079e+00 -4.581e+00 .                                                                                                .                                                                                                .                                                                                                .                                                                                                .                                                                                           +    .             *                                                                                  .     
 7.943e+00 -7.481e+00 .                                                                                                .                                                                                                .                                                                                                .                                                                                                .                                                                                        +       .             *                                                                                  .     
 8.913e+00 -1.108e+01 .                                                                                                .                                                                                                .                                                                                                .                                                                                                .                                                                                     +          .             *                                                                                  .     
 1.000e+01 -1.553e+01 .                                                                                                .                                                                                                .                                                                                                .                                                                                                .                                                                                +               .             *                                                                                  .     
 1.122e+01 -2.101e+01 .                                                                                                .                                                                                                .                                                                                                .                                                                                                .                                                                           +                    .             *                                                                                  .     
 1.259e+01 -2.769e+01 .                                                                                                .                                                                                                .                                                                                                .                                                                                                .                                                                     +                          .             *                                                                                  .     
 1.413e+01 -3.581e+01 .                                                                                                .                                                                                                .                                                                                                .                                                                                                .                                                             +                                  .             *                                                                                  .     
 1.585e+01 -4.557e+01 .                                                                                                .                                                                                                .                                                                                                .                                                                                                .                                                   +                                            .             *                                                                                  .     
 1.778e+01 -5.719e+01 .                                                                                                .                                                                                                .                                                                                                .                                                                                                .                                        +                                                       .             *                                                                                  .     
 1.995e+01 -7.085e+01 .                                                                                                .                                                                                                .                                                                                                .                                                                                                .                           +                                                                    .             *                                                                                  .     
 2.239e+01 -8.667e+01 .                                                                                                .                                                                                                .                                                                                                .                                                                                                .           +                                                                                    .             *                                                                                  .     
 2.512e+01 -1.047e+02 .                                                                                                .                                                                                                .                                                                                                .                                                                                           +    .                                                                                                .             *                                                                                  .     
 2.818e+01 -1.249e+02 .                                                                                                .                                                                                                .                                                                                                .                                                                       +                        .                                                                                                .             *                                                                                  .     
 3.162e+01 -1.469e+02 .                                                                                                .                                                                                                .                                                                                                .                                                  +                                             .                                                                                                .             *                                                                                  .     
 3.548e+01 -1.705e+02 .                                                                                                .                                                                                                .                                                                                                .                           +                                                                    .                                                                                                .             *                                                                                  .     
 3.981e+01 -1.950e+02 .                                                                                                .                                                                                                .                                                                                                .   +                                                                                            .                                                                                                .             *                                                                                  .     
 4.467e+01 -2.200e+02 .                                                                                                .                                                                                                .                                                                            +                   .                                                                                                .                                                                                                .             *                                                                                  .     
 5.012e+01 -2.447e+02 .                                                                                                .                                                                                                .                                                    +                                           .                                                                                                .                                                                                                .             *                                                                                  .     
 5.623e+01 -2.685e+02 .                                                                                                .                                                                                                .                             +                                                                  .                                                                                                .                                                                                                .             *                                                                                  .     
 6.310e+01 -2.908e+02 .                                                                                                .                                                                                                .       +                                                                                        .                                                                                                .                                                                                                .             *                                                                                  .     
 7.079e+01 -3.114e+02 .                                                                                                .                                                                                    +           .                                                                                                .                                                                                                .                                                                                                .             *                                                                                  .     
 7.943e+01 -3.298e+02 .                                                                                                .                                                                   +                            .                                                                                                .                                                                                                .                                                                                                .             *                                                                                  .     
 8.913e+01 -3.461e+02 .                                                                                                .                                                   +                                            .                                                                                                .                                                                                                .                                                                                                .             *                                                                                  .     
 1.000e+02 -3.601e+02 .                                                                                                .                                     +                                                          .                                                                                                .                                                                                                .                                                                                                .             *                                                                                  .     
 1.122e+02 -3.721e+02 .                                                                                                .                          +                                                                     .                                                                                                .                                                                                                .                                                                                                .             *                                                                                  .     
 1.259e+02 -3.822e+02 .                                                                                                .                +                                                                               .                                                                                                .                                                                                                .                                                                                                .             *                                                                                  .     
 1.413e+02 -3.906e+02 .                                                                                                .        +                                                                                       .                                                                                                .                                                                                                .                                                                                                .             *                                                                                  .     
 1.585e+02 -3.976e+02 .                                                                                                . +                                                                                              .                                                                                                .                                                                                                .                                                                                                .             *                                                                                  .     
 1.778e+02 -4.033e+02 .                                                                                            +   .                                                                                                .                                                                                                .                                                                                                .                                                                                                .             *                                                                                  .     
 1.995e+02 -4.079e+02 .                                                                                        +       .                                                                                                .                                                                                                .                                                                                                .                                                                                                .             *                                                                                  .     
 2.239e+02 -4.117e+02 .                                                                                    +           .                                                                                                .                                                                                                .                                                                                                .                                                                                                .             *                                                                                  .     
 2.512e+02 -4.147e+02 .                                                                                 +              .                                                                                                .                                                                                                .                                                                                                .                                                                                                .             *                                                                                  .     
 2.818e+02 -4.172e+02 .                                                                               +                .                                                                                                .                                                                                                .                                                                                                .                                                                                                .             *                                                                                  .     
 3.162e+02 -4.191e+02 .                                                                             +                  .                                                                                                .                                                                                                .                                                                                                .                                                                                                .             *                                                                                  .     
 3.548e+02 -4.207e+02 .                                                                           +                    .                                                                                                .                                                                                                .                                                                                                .                                                                                                .             *                                                                                  .     
 3.981e+02 -4.220e+02 .                                                                          +                     .                                                                                                .                                                                                                .                                                                                                .                                                                                                .             *                                                                                  .     
 4.467e+02 -4.230e+02 .                                                                         +                      .                                                                                                .                                                                                                .                                                                                                .                                                                                                .             *                                                                                  .     
 5.012e+02 -4.238e+02 .                                                                        +                       .                                                                                                .                                                                                                .                                                                                                .                                                                                                .             *                                                                                  .     
 5.623e+02 -4.244e+02 .                                                                        +                       .                                                                                                .                                                                                                .                                                                                                .                                                                                                .             *                                                                                  .     
 6.310e+02 -4.249e+02 .                                                                       +                        .                                                                                                .                                                                                                .                                                                                                .                                                                                                .             *                                                                                  .     
 7.079e+02 -4.253e+02 .                                                                       +                        .                                                                                                .                                                                                                .                                                                                                .                                                                                                .             *                                                                                  .     
 7.943e+02 -4.256e+02 .                                                                       +                        .                                                                                                .                                                                                                .                                                                                                .                                                                                                .             *                                                                                  .     
 8.913e+02 -4.259e+02 .                                                                      +                         .                                                                                                .                                                                                                .                                                                                                .                                                                                                .             *                                                                                  .     
 1.000e+03 -4.261e+02 .                                                                      +                         .                                                                                                .                                                                                                .                                                                                                .                                                                                                .             *                                                                                  .     
 1.122e+03 -4.263e+02 .                                                                      +                         .                                                                                                .                                                                                                .                                                                                                .                                                                                                .             *                                                                                  .     
 1.259e+03 -4.264e+02 .                                                                      +                         .                                                                                                .                                                                                                .                                                                                                .                                                                                                .             *                                                                                  .     
 1.413e+03 -4.265e+02 .                                                                      +                         .                                                                                                .                                                                                                .                                                                                                .                                                                                                .             *                                                                                  .     
 1.585e+03 -4.266e+02 .                                                                      +                         .                                                                                                .                                                                                                .                                                                                                .                                                                                                .             *                                                                                  .     
 1.778e+03 -4.266e+02 .                                                                      +                         .                                                                                                .                                                                                                .                                                                                                .                                                                                                .             *                                                                                  .     
 1.995e+03 -4.267e+02 .                                                                      +                         .                                                                                                .                                                                                                .                                                                                                .                                                                                                .             *                                                                                  .     
 2.239e+03 -4.267e+02 .                                                                      +                         .                                                                                                .                                                                                                .                                                                                                .                                                                                                .             *                                                                                  .     
 2.512e+03 -4.268e+02 .                                                                      +                         .                                                                                                .                                                                                                .                                                                                                .                                                                                                .             *                                                                                  .     
 2.818e+03 -4.268e+02 .                                                                      +                         .                                                                                                .                                                                                                .                                                                                                .                                                                                                .             *                                                                                  .     
 3.162e+03 -4.268e+02 .                                                                     +                          .                                                                                                .                                                                                                .                                                                                                .                                                                                                .             *                                                                                  .     
 3.548e+03 -4.268e+02 .                                                                     +                          .                                                                                                .                                                                                                .                                                                                                .                                                                                                .             *                                                                                  .     
 3.981e+03 -4.268e+02 .                                                                     +                          .                                                                                                .                                                                                                .                                                                                                .                                                                                                .             *                                                                                  .     
 4.467e+03 -4.269e+02 .                                                                     +                          .                                                                                                .                                                                                                .                                                                                                .                                                                                                .             *                                                                                  .     
 5.012e+03 -4.269e+02 .                                                                     +                          .                                                                                                .                                                                                                .                                                                                                .                                                                                                .             *                                                                                  .     
 5.623e+03 -4.269e+02 .                                                                     +                          .                                                                                                .                                                                                                .                                                                                                .                                                                                                .             *                                                                                  .     
 6.310e+03 -4.269e+02 .                                                                     +                          .                                                                                                .                                                                                                .                                                                                                .                                                                                                .             *                                                                                  .     
 7.079e+03 -4.269e+02 .                                                                     +                          .                                                                                                .                                                                                                .                                                                                                .                                                                                                .             *                                                                                  .     
 7.943e+03 -4.269e+02 .                                                                     +                          .                                                                                                .                                                                                                .                                                                                                .                                                                                                .             *                                                                                  .     
 8.913e+03 -4.269e+02 .                                                                     +                          .                                                                                                .                                                                                                .                                                                                                .                                                                                                .             *                                                                                  .     
 1.000e+04 -4.269e+02 .                                                                     +                          .                                                                                                .                                                                                                .                                                                                                .                                                                                                .             *                                                                                  .     
 1.122e+04 -4.269e+02 .                                                                     +                          .                                                                                                .                                                                                                .                                                                                                .                                                                                                .             *                                                                                  .     
 1.259e+04 -4.269e+02 .                                                                     +                          .                                                                                                .                                                                                                .                                                                                                .                                                                                                .             *                                                                                  .     
 1.413e+04 -4.269e+02 .                                                                     +                          .                                                                                                .                                                                                                .                                                                                                .                                                                                                .             *                                                                                  .     
 1.585e+04 -4.269e+02 .                                                                     +                          .                                                                                                .                                                                                                .                                                                                                .                                                                                                .             *                                                                                  .     
 1.778e+04 -4.269e+02 .                                                                     +                          .                                                                                                .                                                                                                .                                                                                                .                                                                                                .             *                                                                                  .     
 1.995e+04 -4.269e+02 .                                                                     +                          .                                                                                                .                                                                                                .                                                                                                .                                                                                                .             *                                                                                  .     
 2.239e+04 -4.269e+02 .                                                                     +                          .                                                                                                .                                                                                                .                                                                                                .                                                                                                .             *                                                                                  .     
 2.512e+04 -4.269e+02 .                                                                     +                          .                                                                                                .                                                                                                .                                                                                                .                                                                                                .             *                                                                                  .     
 2.818e+04 -4.269e+02 .                                                                     +                          .                                                                                                .                                                                                                .                                                                                                .                                                                                                .             *                                                                                  .     
 3.162e+04 -4.269e+02 .                                                                     +                          .                                                                                                .                                                                                                .                                                                                                .                                                                                                .             *                                                                                  .     
 3.548e+04 -4.269e+02 .                                                                     +                          .                                                                                                .                                                                                                .                                                                                                .                                                                                                .             *                                                                                  .     
 3.981e+04 -4.269e+02 .                                                                     +                          .                                                                                                .                                                                                                .                                                                                                .                                                                                                .             *                                                                                  .     
 4.467e+04 -4.269e+02 .                                                                     +                          .                                                                                                .                                                                                                .                                                                                                .                                                                                                .             *                                                                                  .     
 5.012e+04 -4.269e+02 .                                                                     +                          .                                                                                                .                                                                                                .                                                                                                .                                                                                                .             *                                                                                  .     
 5.623e+04 -4.269e+02 .                                                                     +                          .                                                                                                .                                                                                                .                                                                                                .                                                                                                .             *                                                                                  .     
 6.310e+04 -4.269e+02 .                                                                     +                          .                                                                                                .                                                                                                .                                                                                                .                                                                                                .             *                                                                                  .     
 7.079e+04 -4.269e+02 .                                                                     +                          .                                                                                                .                                                                                                .                                                                                                .                                                                                                .             *                                                                                  .     
 7.943e+04 -4.269e+02 .                                                                     +                          .                                                                                                .                                                                                                .                                                                                                .                                                                                                .             *                                                                                  .     
 8.913e+04 -4.269e+02 .                                                                     +                          .                                                                                                .                                                                                                .                                                                                                .                                                                                                .             *                                                                                  .     
 1.000e+05 -4.269e+02 .                                                                     +                          .                                                                                                .                                                                                                .                                                                                                .                                                                                                .             *                                                                                  .     
 1.122e+05 -4.269e+02 .                                                                     +                          .                                                                                                .                                                                                                .                                                                                                .                                                                                                .             *                                                                                  .     
 1.259e+05 -4.269e+02 .                                                                     +                          .                                                                                                .                                                                                                .                                                                                                .                                                                                                .             *                                                                                  .     
 1.413e+05 -4.269e+02 .                                                                     +                          .                                                                                                .                                                                                                .                                                                                                .                                                                                                .             *                                                                                  .     
 1.585e+05 -4.269e+02 .                                                                     +                          .                                                                                                .                                                                                                .                                                                                                .                                                                                                .             *                                                                                  .     
 1.778e+05 -4.269e+02 .                                                                     +                          .                                                                                                .                                                                                                .                                                                                                .                                                                                                .             *                                                                                  .     
 1.995e+05 -4.269e+02 .                                                                     +                          .                                                                                                .                                                                                                .                                                                                                .                                                                                                .             *                                                                                  .     
 2.239e+05 -4.268e+02 .                                                                     +                          .                                                                                                .                                                                                                .                                                                                                .                                                                                                .             *                                                                                  .     
 2.512e+05 -4.268e+02 .                                                                     +                          .                                                                                                .                                                                                                .                                                                                                .                                                                                                .             *                                                                                  .     
 2.818e+05 -4.268e+02 .                                                                     +                          .                                                                                                .                                                                                                .                                                                                                .                                                                                                .             *                                                                                  .     
 3.162e+05 -4.268e+02 .                                                                      +                         .                                                                                                .                                                                                                .                                                                                                .                                                                                                .             *                                                                                  .     
 3.548e+05 -4.268e+02 .                                                                      +                         .                                                                                                .                                                                                                .                                                                                                .                                                                                                .             *                                                                                  .     
[...]
146	1.995262e+07	2.352183e+01	-6.97874e+01	-2.19665e+01	-9.88736e+01	4.993845e+01	2.314740e+01	-2.31474e+01	-2.19665e+01	-9.75379e-01	-4.99385e+01	2.314740e+01	4.993845e+01	2.352183e+01	4.993845e+01	2.196654e+01	2.314754e+01	0.000000e+00	0.000000e+00	-8.07675e-01	8.160380e-02	7.670826e-01	2.337879e+00	-4.29954e-02	4.299537e-02	8.160380e-02	7.631216e-01	-2.33788e+00	-4.29954e-02	2.337879e+00	0.000000e+00	0.000000e+00	2.337879e+00	-8.16038e-02	-4.30110e-02	
147	2.238721e+07	2.352183e+01	-7.02800e+01	-2.18844e+01	-1.00361e+02	4.945116e+01	2.310527e+01	-2.31053e+01	-2.18844e+01	-4.67986e-01	-4.94512e+01	2.310527e+01	4.945116e+01	2.352183e+01	4.945116e+01	2.188442e+01	2.310540e+01	0.000000e+00	0.000000e+00	-8.56100e-01	8.252455e-02	7.023773e-01	2.273174e+00	-4.34321e-02	4.343207e-02	8.252455e-02	7.146960e-01	-2.27317e+00	-4.34321e-02	2.273174e+00	0.000000e+00	0.000000e+00	2.273174e+00	-8.25245e-02	-4.34476e-02	
148	2.511886e+07	2.352183e+01	-7.08290e+01	-2.18014e+01	-1.01905e+02	4.890670e+01	2.306305e+01	-2.30630e+01	-2.18014e+01	-1.69519e-02	-4.89067e+01	2.306305e+01	4.890670e+01	2.352183e+01	4.890670e+01	2.180143e+01	2.306316e+01	0.000000e+00	0.000000e+00	-9.05010e-01	8.234485e-02	6.370216e-01	2.207818e+00	-4.33250e-02	4.332502e-02	8.234485e-02	6.657865e-01	-2.20782e+00	-4.33250e-02	2.207818e+00	0.000000e+00	0.000000e+00	2.207818e+00	-8.23449e-02	-4.33403e-02	
149	2.818383e+07	2.352183e+01	-7.14333e+01	-2.17198e+01	-1.03506e+02	4.830629e+01	2.302183e+01	-2.30218e+01	-2.17198e+01	3.787164e-01	-4.83063e+01	2.302183e+01	4.830629e+01	2.352183e+01	4.830629e+01	2.171975e+01	2.302193e+01	0.000000e+00	0.000000e+00	-9.53554e-01	8.106830e-02	5.716526e-01	2.142449e+00	-4.26913e-02	4.269128e-02	8.106830e-02	6.172427e-01	-2.14245e+00	-4.26913e-02	2.142449e+00	0.000000e+00	0.000000e+00	2.142449e+00	-8.10683e-02	-4.27062e-02	
150	3.162278e+07	2.352183e+01	-7.20906e+01	-2.16415e+01	-1.05160e+02	4.765255e+01	2.298263e+01	-2.29826e+01	-2.16415e+01	7.214295e-01	-4.76525e+01	2.298263e+01	4.765255e+01	2.352183e+01	4.765255e+01	2.164146e+01	2.298271e+01	0.000000e+00	0.000000e+00	-1.00095e+00	7.876725e-02	5.068344e-01	2.077631e+00	-4.15819e-02	4.158186e-02	7.876725e-02	5.698464e-01	-2.07763e+00	-4.15819e-02	2.077631e+00	0.000000e+00	0.000000e+00	2.077631e+00	-7.87672e-02	-4.15963e-02	
151	3.548134e+07	2.352183e+01	-7.27973e+01	-2.15683e+01	-1.06863e+02	4.694924e+01	2.294622e+01	-2.29462e+01	-2.15683e+01	1.014761e+00	-4.69492e+01	2.294622e+01	4.694924e+01	2.352183e+01	4.694924e+01	2.156829e+01	2.294630e+01	0.000000e+00	0.000000e+00	-1.04652e+00	7.557186e-02	4.430201e-01	2.013816e+00	-4.00745e-02	4.007451e-02	7.557186e-02	5.242747e-01	-2.01382e+00	-4.00745e-02	2.013816e+00	0.000000e+00	0.000000e+00	2.013816e+00	-7.55719e-02	-4.00883e-02	
152	3.981072e+07	2.352183e+01	-7.35489e+01	-2.15016e+01	-1.08611e+02	4.620096e+01	2.291318e+01	-2.29132e+01	-2.15016e+01	1.263114e+00	-4.62010e+01	2.291318e+01	4.620096e+01	2.352183e+01	4.620096e+01	2.150158e+01	2.291324e+01	0.000000e+00	0.000000e+00	-1.08972e+00	7.165185e-02	3.805262e-01	1.951323e+00	-3.82634e-02	3.826343e-02	7.165185e-02	4.810778e-01	-1.95132e+00	-3.82634e-02	1.951323e+00	0.000000e+00	0.000000e+00	1.951323e+00	-7.16519e-02	-3.82765e-02	
153	4.466836e+07	2.352183e+01	-7.43407e+01	-2.14421e+01	-1.10399e+02	4.541275e+01	2.288379e+01	-2.28838e+01	-2.14421e+01	1.471377e+00	-4.54128e+01	2.288379e+01	4.541275e+01	2.352183e+01	4.541275e+01	2.144212e+01	2.288385e+01	0.000000e+00	0.000000e+00	-1.13013e+00	6.719536e-02	3.195229e-01	1.890319e+00	-3.62485e-02	3.624855e-02	6.719536e-02	4.406700e-01	-1.89032e+00	-3.62485e-02	1.890319e+00	0.000000e+00	0.000000e+00	1.890319e+00	-6.71954e-02	-3.62608e-02	
154	5.011872e+07	2.352183e+01	-7.51675e+01	-2.13903e+01	-1.12222e+02	4.458985e+01	2.285813e+01	-2.28581e+01	-2.13903e+01	1.644588e+00	-4.45899e+01	2.285813e+01	4.458985e+01	2.352183e+01	4.458985e+01	2.139027e+01	2.285818e+01	0.000000e+00	0.000000e+00	-1.16746e+00	6.238940e-02	2.600363e-01	1.830833e+00	-3.41261e-02	3.412610e-02	6.238940e-02	4.033352e-01	-1.83083e+00	-3.41261e-02	1.830833e+00	0.000000e+00	0.000000e+00	1.830833e+00	-6.23894e-02	-3.41375e-02	
155	5.623413e+07	2.352183e+01	-7.60244e+01	-2.13460e+01	-1.14075e+02	4.373741e+01	2.283608e+01	-2.28361e+01	-2.13460e+01	1.787683e+00	-4.37374e+01	2.283608e+01	4.373741e+01	2.352183e+01	4.373741e+01	2.134600e+01	2.283612e+01	0.000000e+00	0.000000e+00	-1.20155e+00	5.740489e-02	2.019619e-01	1.772758e+00	-3.19820e-02	3.198204e-02	5.740489e-02	3.692414e-01	-1.77276e+00	-3.19820e-02	1.772758e+00	0.000000e+00	0.000000e+00	1.772758e+00	-5.74049e-02	-3.19925e-02	
156	6.309573e+07	2.352183e+01	-7.69068e+01	-2.13090e+01	-1.15952e+02	4.286028e+01	2.281739e+01	-2.28174e+01	-2.13090e+01	1.905297e+00	-4.28603e+01	2.281739e+01	4.286028e+01	2.352183e+01	4.286028e+01	2.130897e+01	2.281742e+01	0.000000e+00	0.000000e+00	-1.23234e+00	5.238751e-02	1.450833e-01	1.715880e+00	-2.98884e-02	2.988837e-02	5.238751e-02	3.384599e-01	-1.71588e+00	-2.98884e-02	1.715880e+00	0.000000e+00	0.000000e+00	1.715880e+00	-5.23875e-02	-2.98980e-02	
157	7.079458e+07	2.352183e+01	-7.78104e+01	-2.12787e+01	-1.17849e+02	4.196297e+01	2.280172e+01	-2.28017e+01	-2.12787e+01	2.001653e+00	-4.19630e+01	2.280172e+01	4.196297e+01	2.352183e+01	4.196297e+01	2.127870e+01	2.280174e+01	0.000000e+00	0.000000e+00	-1.25981e+00	4.745415e-02	8.909338e-02	1.659890e+00	-2.79020e-02	2.790204e-02	4.745415e-02	3.109882e-01	-1.65989e+00	-2.79020e-02	1.659890e+00	0.000000e+00	0.000000e+00	1.659890e+00	-4.74542e-02	-2.79108e-02	
158	7.943282e+07	2.352183e+01	-7.87315e+01	-2.12546e+01	-1.19762e+02	4.104957e+01	2.278870e+01	-2.27887e+01	-2.12546e+01	2.080506e+00	-4.10496e+01	2.278870e+01	4.104957e+01	2.352183e+01	4.104957e+01	2.125460e+01	2.278872e+01	0.000000e+00	0.000000e+00	-1.28403e+00	4.269367e-02	3.361615e-02	1.604412e+00	-2.60658e-02	2.606580e-02	4.269367e-02	2.867705e-01	-1.60441e+00	-2.60658e-02	1.604412e+00	0.000000e+00	0.000000e+00	1.604412e+00	-4.26937e-02	-2.60738e-02	
159	8.912509e+07	2.352183e+01	-7.96669e+01	-2.12361e+01	-1.21688e+02	4.012376e+01	2.277796e+01	-2.27780e+01	-2.12361e+01	2.145136e+00	-4.01238e+01	2.277796e+01	4.012376e+01	2.352183e+01	4.012376e+01	2.123609e+01	2.277798e+01	0.000000e+00	0.000000e+00	-1.30508e+00	3.817052e-02	-2.17724e-02	1.549024e+00	-2.44100e-02	2.441005e-02	3.817052e-02	2.657168e-01	-1.54902e+00	-2.44100e-02	1.549024e+00	0.000000e+00	0.000000e+00	1.549024e+00	-3.81705e-02	-2.44173e-02	
160	1.000000e+08	2.352183e+01	-8.06137e+01	-2.12226e+01	-1.23623e+02	3.918888e+01	2.276915e+01	-2.27692e+01	-2.12226e+01	2.198377e+00	-3.91889e+01	2.276915e+01	3.918888e+01	2.352183e+01	3.918888e+01	2.122265e+01	2.276917e+01	0.000000e+00	0.000000e+00	-1.32308e+00	3.393003e-02	-7.75250e-02	1.493271e+00	-2.29553e-02	2.295526e-02	3.393003e-02	2.477183e-01	-1.49327e+00	-2.29553e-02	1.493271e+00	0.000000e+00	0.000000e+00	1.493271e+00	-3.39300e-02	-2.29618e-02	

                                                                                                                                                                                                                                                                                     **************************************************************
                                                                                                                                                                                                                                                                                     AC Analysis  Fri Jan  2 08:31:27  2015
----------------------------------------------------------------------------------------------------------------------------------------------------------------------------------------------------------------------------------------------------------------------------------------------------------------------------------------------------------------------------------------------------------------------------------------------------------------------------------------------------------------------------------------------------------------------------------------------------------------------------------------
Index   frequency       db(v(vin))      db(v(3)-v(vbase 0-vdb(2)        db(v(1)-v(vout) db(v(1)-v(vcc)) db(v(vbase)-v(v 0-vdb(vbase)    0-vdb(2)        db(v(vin)-v(3)) 0-vdb(vout)     vdb(vbase)      vdb(vout)       vdb(vin)        vdb(1)          vdb(2)          vdb(3)          ph(v(vin))      ph(v(vcc))      ph(v(3)-v(vbase 0-vp(2)         ph(v(1)-v(vout) ph(v(1)-v(vcc)) ph(v(vbase)-v(v 0-vp(vbase)     0-vp(2)         ph(v(vin)-v(3)) 0-vp(vout)      vp(vbase)       vp(vout)        vp(vcc)         vp(vin)         vp(1)           vp(2)           vp(3)           
----------------------------------------------------------------------------------------------------------------------------------------------------------------------------------------------------------------------------------------------------------------------------------------------------------------------------------------------------------------------------------------------------------------------------------------------------------------------------------------------------------------------------------------------------------------------------------------------------------------------------------------
0	1.000000e+03	2.352183e+01	-3.89048e+00	-2.25654e+01	-1.02136e+01	5.259842e+01	2.346236e+01	-2.34624e+01	-2.25654e+01	-2.10784e+01	-5.25984e+01	2.346236e+01	5.259842e+01	2.352183e+01	5.259842e+01	2.256537e+01	2.347058e+01	0.000000e+00	0.000000e+00	-1.52754e+00	-4.26036e-02	1.614058e+00	-3.09905e+00	4.260665e-02	-4.26067e-02	-4.26036e-02	4.325180e-02	3.098331e+00	4.260665e-02	-3.09833e+00	0.000000e+00	0.000000e+00	-3.09905e+00	4.260360e-02	-2.56105e-04	
1	1.258925e+03	2.352183e+01	-5.88757e+00	-2.25683e+01	-1.22107e+01	5.260133e+01	2.346527e+01	-2.34653e+01	-2.25683e+01	-2.10755e+01	-5.26013e+01	2.346527e+01	5.260133e+01	2.352183e+01	5.260133e+01	2.256828e+01	2.347054e+01	0.000000e+00	0.000000e+00	-1.53613e+00	-3.38455e-02	1.605145e+00	-3.10782e+00	3.384946e-02	-3.38495e-02	-3.38455e-02	3.466174e-02	3.107244e+00	3.384946e-02	-3.10724e+00	0.000000e+00	0.000000e+00	-3.10782e+00	3.384552e-02	-2.05334e-04	
2	1.584893e+03	2.352183e+01	-7.88573e+00	-2.25701e+01	-1.42089e+01	5.260317e+01	2.346710e+01	-2.34671e+01	-2.25701e+01	-2.10737e+01	-5.26032e+01	2.346710e+01	5.260317e+01	2.352183e+01	5.260317e+01	2.257012e+01	2.347052e+01	0.000000e+00	0.000000e+00	-1.54288e+00	-2.68841e-02	1.598056e+00	-3.11479e+00	2.688915e-02	-2.68891e-02	-2.68841e-02	2.791183e-02	3.114333e+00	2.688915e-02	-3.11433e+00	0.000000e+00	0.000000e+00	-3.11479e+00	2.688410e-02	-1.65395e-04	
3	1.995262e+03	2.352183e+01	-9.88457e+00	-2.25713e+01	-1.62077e+01	5.260433e+01	2.346826e+01	-2.34683e+01	-2.25713e+01	-2.10725e+01	-5.26043e+01	2.346826e+01	5.260433e+01	2.352183e+01	5.260433e+01	2.257128e+01	2.347051e+01	0.000000e+00	0.000000e+00	-1.54815e+00	-2.13515e-02	1.592415e+00	-3.12034e+00	2.135791e-02	-2.13579e-02	-2.13515e-02	2.264544e-02	3.119974e+00	2.135791e-02	-3.11997e+00	0.000000e+00	0.000000e+00	-3.12034e+00	2.135150e-02	-1.34212e-04	
4	2.511886e+03	2.352183e+01	-1.18838e+01	-2.25720e+01	-1.82070e+01	5.260506e+01	2.346899e+01	-2.34690e+01	-2.25720e+01	-2.10718e+01	-5.26051e+01	2.346899e+01	5.260506e+01	2.352183e+01	5.260506e+01	2.257201e+01	2.347050e+01	0.000000e+00	0.000000e+00	-1.55221e+00	-1.69545e-02	1.587924e+00	-3.12475e+00	1.696262e-02	-1.69626e-02	-1.69545e-02	1.858357e-02	3.124465e+00	1.696262e-02	-3.12447e+00	0.000000e+00	0.000000e+00	-3.12475e+00	1.695449e-02	-1.10151e-04	
5	3.162278e+03	2.352183e+01	-1.38834e+01	-2.25725e+01	-2.02065e+01	5.260552e+01	2.346945e+01	-2.34695e+01	-2.25725e+01	-2.10713e+01	-5.26055e+01	2.346945e+01	5.260552e+01	2.352183e+01	5.260552e+01	2.257247e+01	2.347049e+01	0.000000e+00	0.000000e+00	-1.55529e+00	-1.34597e-02	1.584344e+00	-3.12827e+00	1.346993e-02	-1.34699e-02	-1.34597e-02	1.551062e-02	3.128045e+00	1.346993e-02	-3.12804e+00	0.000000e+00	0.000000e+00	-3.12827e+00	1.345965e-02	-9.19436e-05	
6	3.981072e+03	2.352183e+01	-1.58831e+01	-2.25728e+01	-2.22062e+01	5.260581e+01	2.346975e+01	-2.34697e+01	-2.25728e+01	-2.10710e+01	-5.26058e+01	2.346975e+01	5.260581e+01	2.352183e+01	5.260581e+01	2.257276e+01	2.347049e+01	0.000000e+00	0.000000e+00	-1.55753e+00	-1.06812e-02	1.581486e+00	-3.13108e+00	1.069420e-02	-1.06942e-02	-1.06812e-02	1.326331e-02	3.130903e+00	1.069420e-02	-3.13090e+00	0.000000e+00	0.000000e+00	-3.13108e+00	1.068123e-02	-7.86256e-05	
7	5.011872e+03	2.352183e+01	-1.78829e+01	-2.25729e+01	-2.42061e+01	5.260600e+01	2.346993e+01	-2.34699e+01	-2.25729e+01	-2.10708e+01	-5.26060e+01	2.346993e+01	5.260600e+01	2.352183e+01	5.260600e+01	2.257295e+01	2.347049e+01	0.000000e+00	0.000000e+00	-1.55907e+00	-8.47144e-03	1.579197e+00	-3.13334e+00	8.487791e-03	-8.48779e-03	-8.47144e-03	1.172212e-02	3.133192e+00	8.487791e-03	-3.13319e+00	0.000000e+00	0.000000e+00	-3.13334e+00	8.471436e-03	-6.94915e-05	
8	6.309573e+03	2.352183e+01	-1.98827e+01	-2.25731e+01	-2.62059e+01	5.260611e+01	2.347005e+01	-2.34700e+01	-2.25731e+01	-2.10707e+01	-5.26061e+01	2.347005e+01	5.260611e+01	2.352183e+01	5.260611e+01	2.257306e+01	2.347049e+01	0.000000e+00	0.000000e+00	-1.55999e+00	-6.71269e-03	1.577354e+00	-3.13515e+00	6.733298e-03	-6.73330e-03	-6.71269e-03	1.080509e-02	3.135034e+00	6.733298e-03	-3.13503e+00	0.000000e+00	0.000000e+00	-3.13515e+00	6.712688e-03	-6.40564e-05	
9	7.943282e+03	2.352183e+01	-2.18826e+01	-2.25731e+01	-2.82059e+01	5.260618e+01	2.347012e+01	-2.34701e+01	-2.25731e+01	-2.10705e+01	-5.26062e+01	2.347012e+01	5.260618e+01	2.352183e+01	5.260618e+01	2.257313e+01	2.347049e+01	0.000000e+00	0.000000e+00	-1.56033e+00	-5.31137e-03	1.575862e+00	-3.13662e+00	5.337333e-03	-5.33733e-03	-5.31137e-03	1.046341e-02	3.136527e+00	5.337333e-03	-3.13653e+00	0.000000e+00	0.000000e+00	-3.13662e+00	5.311369e-03	-6.20318e-05	
10	1.000000e+04	2.352183e+01	-2.38825e+01	-2.25732e+01	-3.02058e+01	5.260623e+01	2.347016e+01	-2.34702e+01	-2.25732e+01	-2.10704e+01	-5.26062e+01	2.347016e+01	5.260623e+01	2.352183e+01	5.260623e+01	2.257318e+01	2.347048e+01	0.000000e+00	0.000000e+00	-1.56012e+00	-4.19288e-03	1.574638e+00	-3.13782e+00	4.225578e-03	-4.22558e-03	-4.19288e-03	1.067890e-02	3.137751e+00	4.225578e-03	-3.13775e+00	0.000000e+00	0.000000e+00	-3.13782e+00	4.192878e-03	-6.33101e-05	
11	1.258925e+04	2.352183e+01	-2.58823e+01	-2.25732e+01	-3.22058e+01	5.260626e+01	2.347019e+01	-2.34702e+01	-2.25732e+01	-2.10703e+01	-5.26063e+01	2.347019e+01	5.260626e+01	2.352183e+01	5.260626e+01	2.257321e+01	2.347048e+01	0.000000e+00	0.000000e+00	-1.55933e+00	-3.29766e-03	1.573620e+00	-3.13883e+00	3.338838e-03	-3.33884e-03	-3.29766e-03	1.146302e-02	3.138769e+00	3.338838e-03	-3.13877e+00	0.000000e+00	0.000000e+00	-3.13883e+00	3.297661e-03	-6.79597e-05	
12	1.584893e+04	2.352183e+01	-2.78821e+01	-2.25732e+01	-3.42058e+01	5.260628e+01	2.347021e+01	-2.34702e+01	-2.25732e+01	-2.10701e+01	-5.26063e+01	2.347021e+01	5.260628e+01	2.352183e+01	5.260628e+01	2.257323e+01	2.347048e+01	0.000000e+00	0.000000e+00	-1.55794e+00	-2.57805e-03	1.572752e+00	-3.13968e+00	2.629898e-03	-2.62990e-03	-2.57805e-03	1.285748e-02	3.139637e+00	2.629898e-03	-3.13964e+00	0.000000e+00	0.000000e+00	-3.13968e+00	2.578051e-03	-7.62284e-05	
13	1.995262e+04	2.352183e+01	-2.98818e+01	-2.25732e+01	-3.62058e+01	5.260629e+01	2.347022e+01	-2.34702e+01	-2.25732e+01	-2.10697e+01	-5.26063e+01	2.347022e+01	5.260629e+01	2.352183e+01	5.260629e+01	2.257324e+01	2.347048e+01	0.000000e+00	0.000000e+00	-1.55586e+00	-1.99573e-03	1.571988e+00	-3.14044e+00	2.061007e-03	-2.06101e-03	-1.99573e-03	1.493646e-02	3.140401e+00	2.061007e-03	-3.14040e+00	0.000000e+00	0.000000e+00	-3.14044e+00	1.995729e-03	-8.85564e-05	
14	2.511886e+04	2.352183e+01	-3.18813e+01	-2.25732e+01	-3.82058e+01	5.260629e+01	2.347023e+01	-2.34702e+01	-2.25732e+01	-2.10693e+01	-5.26063e+01	2.347023e+01	5.260629e+01	2.352183e+01	5.260629e+01	2.257325e+01	2.347048e+01	0.000000e+00	0.000000e+00	-1.55299e+00	-1.51968e-03	1.571287e+00	-3.14113e+00	1.601870e-03	-1.60187e-03	-1.51968e-03	1.781048e-02	3.141102e+00	1.601870e-03	-3.14110e+00	0.000000e+00	0.000000e+00	-3.14113e+00	1.519685e-03	-1.05600e-04	
15	3.162278e+04	2.352183e+01	-3.38806e+01	-2.25732e+01	-4.02058e+01	5.260629e+01	2.347023e+01	-2.34702e+01	-2.25732e+01	-2.10685e+01	-5.26063e+01	2.347023e+01	5.260629e+01	2.352183e+01	5.260629e+01	2.257325e+01	2.347048e+01	0.000000e+00	0.000000e+00	-1.54916e+00	-1.12457e-03	1.570612e+00	3.141386e+00	1.228038e-03	-1.22804e-03	-1.12457e-03	2.163221e-02	-3.14141e+00	1.228038e-03	3.141409e+00	0.000000e+00	0.000000e+00	3.141386e+00	1.124569e-03	-1.28268e-04	
16	3.981072e+04	2.352183e+01	-3.58794e+01	-2.25733e+01	-4.22058e+01	5.260629e+01	2.347024e+01	-2.34702e+01	-2.25733e+01	-2.10673e+01	-5.26063e+01	2.347024e+01	5.260629e+01	2.352183e+01	5.260629e+01	2.257325e+01	2.347048e+01	0.000000e+00	0.000000e+00	-1.54419e+00	-7.89341e-04	1.569928e+00	3.140706e+00	9.196035e-04	-9.19604e-04	-7.89341e-04	2.660442e-02	-3.14072e+00	9.196035e-04	3.140724e+00	0.000000e+00	0.000000e+00	3.140706e+00	7.893405e-04	-1.57766e-04	
17	5.011872e+04	2.352183e+01	-3.78775e+01	-2.25733e+01	-4.42058e+01	5.260628e+01	2.347024e+01	-2.34702e+01	-2.25733e+01	-2.10654e+01	-5.26063e+01	2.347024e+01	5.260628e+01	2.352183e+01	5.260628e+01	2.257325e+01	2.347048e+01	0.000000e+00	0.000000e+00	-1.53781e+00	-4.96147e-04	1.569197e+00	3.139979e+00	6.601412e-04	-6.60141e-04	-4.96147e-04	3.299039e-02	-3.13999e+00	6.601412e-04	3.139994e+00	0.000000e+00	0.000000e+00	3.139979e+00	4.961474e-04	-1.95665e-04	
18	6.309573e+04	2.352183e+01	-3.98745e+01	-2.25732e+01	-4.62058e+01	5.260627e+01	2.347024e+01	-2.34702e+01	-2.25732e+01	-2.10624e+01	-5.26063e+01	2.347024e+01	5.260627e+01	2.352183e+01	5.260627e+01	2.257325e+01	2.347048e+01	0.000000e+00	0.000000e+00	-1.52967e+00	-2.29377e-04	1.568382e+00	3.139166e+00	4.358341e-04	-4.35834e-04	-2.29377e-04	4.112719e-02	-3.13918e+00	4.358341e-04	3.139178e+00	0.000000e+00	0.000000e+00	3.139166e+00	2.293766e-04	-2.43984e-04	
19	7.943282e+04	2.352183e+01	-4.18697e+01	-2.25732e+01	-4.82058e+01	5.260625e+01	2.347023e+01	-2.34702e+01	-2.25732e+01	-2.10577e+01	-5.26063e+01	2.347023e+01	5.260625e+01	2.352183e+01	5.260625e+01	2.257324e+01	2.347047e+01	0.000000e+00	0.000000e+00	-1.51935e+00	2.517763e-05	1.567437e+00	3.138224e+00	2.347375e-04	-2.34738e-04	2.517763e-05	5.144218e-02	-3.13823e+00	2.347375e-04	3.138234e+00	0.000000e+00	0.000000e+00	3.138224e+00	-2.51776e-05	-3.05295e-04	
20	1.000000e+05	2.352183e+01	-4.38622e+01	-2.25732e+01	-5.02058e+01	5.260622e+01	2.347023e+01	-2.34702e+01	-2.25732e+01	-2.10502e+01	-5.26062e+01	2.347023e+01	5.260622e+01	2.352183e+01	5.260622e+01	2.257323e+01	2.347047e+01	0.000000e+00	0.000000e+00	-1.50632e+00	2.810698e-04	1.566314e+00	3.137103e+00	4.614320e-05	-4.61432e-05	2.810698e-04	6.447275e-02	-3.13711e+00	4.614320e-05	3.137110e+00	0.000000e+00	0.000000e+00	3.137103e+00	-2.81070e-04	-3.82863e-04	

elapsed time since last call: 0.194 seconds.

Total elapsed time: 0.194 seconds.

Total DRAM available = 3920.781250 MB.
DRAM currently available = 1350.214844 MB.
Total ngspice program size = 5.609375 MB.
Resident set size = 1.792969 MB.
Shared ngspice pages = 560.000 kB.
Text (code) pages = 1.073242 MB.
Stack = 0 bytes.
Library pages = 3.178711 MB.

Warning: vinput101: has no value, DC 0 assumed
Warning: can't parse '0': ignored
Warning: can't parse '0': ignored
Warning: can't parse '0': ignored
Warning: can't parse '0': ignored

Warning: can't parse '0': ignored
Warning: can't parse '0': ignored
Warning: can't parse '0': ignored
Warning: can't parse '0': ignored


Error: argument out of range for db
Error: argument out of range for db
Error: argument out of range for db
Error: argument out of range for db

